%mem=30Gb
%nproc=24
#PBEPBE/gen scf=(maxcycle=500,conver=3) NMR=GIAO Scrf=(solvent=Dichloromethane)

estrutura 94

0 1
Pt      -0.169502      -0.396853       0.222295
P        2.355300      -0.971182       0.087032
P       -0.060766       1.873081      -0.072530
C        2.709904      -1.654543      -1.594433
C        4.011641      -2.052432      -1.962088
C        1.680517      -1.754338      -2.541417
C        4.266814      -2.556826      -3.238611
H        4.834629      -1.964564      -1.249608
C        1.939098      -2.252932      -3.823726
H        0.676564      -1.422250      -2.281977
C        3.230256      -2.659257      -4.172870
H        5.278287      -2.869257      -3.505148
H        1.127842      -2.316613      -4.551029
H        3.428650      -3.052306      -5.173363
C        2.763112      -2.334701       1.271177
C        2.519627      -2.119667       2.640568
C        3.256340      -3.585315       0.867218
C        2.805446      -3.109317       3.583522
H        2.087814      -1.176172       2.981555
C        3.528160      -4.582279       1.811362
H        3.423817      -3.799164      -0.188653
C        3.312951      -4.346095       3.171271
H        2.616214      -2.917186       4.642682
H        3.908015      -5.550711       1.475660
H        3.528132      -5.125270       3.906869
C        3.775789       0.212026       0.291055
C        4.089906       1.072615      -0.777782
C        4.525575       0.312599       1.475253
C        5.124090       2.004871      -0.665104
H        3.533480       1.008843      -1.714283
C        5.558657       1.249138       1.586722
H        4.320485      -0.347606       2.318673
C        5.861658       2.099273       0.519498
H        5.354232       2.658566      -1.510691
H        6.131942       1.307446       2.515376
H        6.671237       2.827925       0.607453
C       -1.559993       2.952672       0.105197
C       -2.057414       3.747164      -0.936121
C       -2.172875       3.022885       1.368116
C       -3.154885       4.588570      -0.721025
H       -1.599674       3.714592      -1.924860
C       -3.266082       3.863689       1.581704
H       -1.784619       2.428911       2.199015
C       -3.763930       4.647562       0.533451
H       -3.535024       5.197373      -1.545383
H       -3.729103       3.909757       2.570558
H       -4.621716       5.304511       0.698597
C        0.607222       2.333289      -1.728823
C        1.696979       3.193451      -1.936851
C       -0.037253       1.767185      -2.845985
C        2.126575       3.488655      -3.236395
H        2.230873       3.629042      -1.092499
C        0.388982       2.070652      -4.141051
H       -0.885054       1.093189      -2.699355
C        1.473955       2.932685      -4.339726
H        2.979149       4.157152      -3.381842
H       -0.126545       1.628822      -4.997398
H        1.810977       3.166667      -5.352851
C        0.974055       2.671399       1.241191
C        1.204948       4.060865       1.238052
C        1.398119       1.920648       2.347060
C        1.880140       4.668564       2.298314
H        0.834426       4.681736       0.419816
C        2.058392       2.532578       3.417686
H        1.183990       0.851465       2.377524
C        2.308629       3.905903       3.391790
H        2.057561       5.746582       2.278379
H        2.372079       1.930725       4.274324
H        2.825234       4.385835       4.226603
Sn      -2.789234      -0.935503      -0.016175
Cl      -0.502807      -2.720920       0.915675
C       -3.917694      -1.040577       1.956966
C       -3.418678      -2.517390      -1.543743
Cl      -3.943650       0.910492      -1.256556
C       -2.963144      -0.591169       3.068270
H       -2.622033       0.445985       2.928071
H       -3.476399      -0.640512       4.048854
H       -2.071473      -1.234037       3.125773
C       -5.142902      -0.124534       1.894659
H       -5.675480      -0.148284       2.866362
H       -4.871828       0.921683       1.685703
H       -5.859780      -0.439728       1.119504
C       -4.349597      -2.491844       2.207932
H       -5.057106      -2.860198       1.449102
H       -3.491783      -3.180507       2.241157
H       -4.863619      -2.560202       3.187346
C       -3.090596      -3.935610      -1.063086
H       -3.438772      -4.667703      -1.820414
H       -2.012434      -4.086999      -0.917436
H       -3.595565      -4.184148      -0.115359
C       -2.679016      -2.219478      -2.852654
H       -1.587148      -2.317423      -2.739301
H       -2.991448      -2.939772      -3.634729
H       -2.900324      -1.207415      -3.227550
C       -4.933256      -2.379559      -1.751500
H       -5.213142      -1.374396      -2.098263
H       -5.268966      -3.109932      -2.514551
H       -5.503261      -2.592434      -0.831515

H     0
S   5   1.00
    282.952156333090         0.0004300
     87.0622019486430        0.0005100
     26.7883698303517        0.0061600
      8.24257533241590       0.0130300
      2.53617702535874       0.0994900
S   1   1.00
      0.78036216164884       1.0000000
S   1   1.00
      0.24011143435349       1.0000000
P   1   1.00
      0.88150000000000       1.0000000
P   1   1.00
      0.17989200000000       1.0000000
****
C     0
S   6   1.00
   8846.12353391750          0.0005300
   2948.70784463917          0.0007700
    982.902614879722         0.0040500
    327.634204959907         0.0140300
    109.211401653302         0.0534500
     36.4038005511008        0.1702700
S   1   1.00
     12.1346001837003        1.0000000
S   1   1.00
      4.04486672790009       1.0000000
S   1   1.00
      1.34828890930003       1.0000000
S   1   1.00
      0.44942963643334       1.0000000
S   1   1.00
      0.14980987881111       1.0000000
P   4   1.00
     37.2940933931704        0.0039600
     11.4751056594370        0.0188900
      3.53080174136525       0.0946100
      1.08640053580469       0.3188900
P   1   1.00
      0.33427708793991       1.0000000
P   1   1.00
      0.10285448859689       1.0000000
D   1   1.00
      0.47750000000000       1.0000000
D   1   1.00
      0.11998000000000       1.0000000
****
P     0
S   7   1.00
  59538.0043013517           0.0009500
  21650.1833823097           0.0006100
   7872.79395720353          0.0037500
   2862.83416625583          0.0096300
   1041.03060591121          0.0324300
    378.556583967713         0.0995000
    137.656939624623         0.2657000
S   1   1.00
     50.0570689544083        1.0000000
S   1   1.00
     18.2025705288757        1.0000000
S   1   1.00
      6.61911655595482       1.0000000
S   1   1.00
      2.40695147489266       1.0000000
S   1   1.00
      0.87525508177915       1.0000000
S   1   1.00
      0.31827457519242       1.0000000
S   1   1.00
      0.11573620916088       1.0000000
S   1   1.00
      0.04208589424032       1.0000000
P   5   1.00
    487.996723151500         0.0021600
    162.665574383833         0.0097900
     54.2218581279445        0.0548500
     18.0739527093148        0.2177000
      6.02465090310494       0.4897800
P   1   1.00
      2.00821696770165       1.0000000
P   1   1.00
      0.66940565590055       1.0000000
P   1   1.00
      0.22313521863352       1.0000000
P   1   1.00
      0.07437840621117       1.0000000
P   1   1.00
      0.02479280207039       1.0000000
D   1   1.00
      0.35395000000000       1.0000000
D   1   1.00
      0.08909800000000       1.0000000
****
Cl     0
S   7   1.00
  77142.8171643825           0.0010600
  28051.9335143209           0.0006400
  10200.7030961167           0.0039600
   3709.34658040607          0.0098300
   1348.85330196584          0.0326900
    490.492109805761         0.0995200
    178.360767202095         0.2655500
S   1   1.00
     64.8584608007618        1.0000000
S   1   1.00
     23.5848948366407        1.0000000
S   1   1.00
      8.57632539514206       1.0000000
S   1   1.00
      3.11866378005166       1.0000000
S   1   1.00
      1.13405955638242       1.0000000
S   1   1.00
      0.41238529322997       1.0000000
S   1   1.00
      0.14995828844726       1.0000000
S   1   1.00
      0.05453028670810       1.0000000
P   5   1.00
    694.985360568515         0.0020000
    231.661786856172         0.0089500
     77.2205956187239        0.0511300
     25.7401985395746        0.2101100
      8.58006617985821       0.4973800
P   1   1.00
      2.86002205995274       1.0000000
P   1   1.00
      0.95334068665091       1.0000000
P   1   1.00
      0.31778022888364       1.0000000
P   1   1.00
      0.10592674296121       1.0000000
P   1   1.00
      0.03530891432040       1.0000000
D   1   1.00
      0.55696000000000       1.0000000
D   1   1.00
      0.15619100000000       1.0000000
****
Sn     0
S   8   1.00
 754482.145507175            0.0044300
 335325.398003189            0.0019800
 149033.510223639            0.0090500
  66237.1156549509           0.0048700
  29438.7180688671           0.0207700
  13083.8746972742           0.0329000
   5815.05542101078          0.0770100
   2584.46907600479          0.1516000
S   1   1.00
   1148.65292266880          1.0000000
S   1   1.00
    510.512410075020         1.0000000
S   1   1.00
    226.894404477787         1.0000000
S   1   1.00
    100.841957545683         1.0000000
S   1   1.00
     44.8186477980813        1.0000000
S   1   1.00
     19.9193990213695        1.0000000
S   1   1.00
      8.85306623171977       1.0000000
S   1   1.00
      3.93469610298656       1.0000000
S   1   1.00
      1.74875382354958       1.0000000
S   1   1.00
      0.77722392157759       1.0000000
S   1   1.00
      0.34543285403449       1.0000000
S   1   1.00
      0.15352571290422       1.0000000
S   1   1.00
      0.06823365017965       1.0000000
S   1   1.00
      0.01347825188734       1.0000000
P   5   1.00
  10090.6583042438           0.0027500
   4036.26332169752          0.0041800
   1614.50532867901          0.0208900
    645.802131471604         0.0713700
    258.320852588642         0.2261300
P   1   1.00
    103.328341035457         1.0000000
P   1   1.00
     41.3313364141826        1.0000000
P   1   1.00
     16.5325345656731        1.0000000
P   1   1.00
      6.61301382626922       1.0000000
P   1   1.00
      2.64520553050769       1.0000000
P   1   1.00
      1.05808221220308       1.0000000
P   1   1.00
      0.42323288488123       1.0000000
P   1   1.00
      0.16929315395249       1.0000000
P   1   1.00
      0.06771726158100       1.0000000
P   1   1.00
      0.02708690463240       1.0000000
P   1   1.00
      0.01083476185296       1.0000000
D   4   1.00
    554.302506505741         0.0043700
    201.564547820269         0.0251100
     73.2961992073707        0.1331600
     26.6531633481348        0.3890000
D   1   1.00
      9.69205939932174       1.0000000
D   1   1.00
      3.52438523611700       1.0000000
D   1   1.00
      1.28159463131527       1.0000000
D   1   1.00
      0.46603441138737       1.0000000
D   1   1.00
      0.16946705868632       1.0000000
F   1   1.00
      1.31400000000000       1.0000000
F   1   1.00
      0.19993000000000       1.0000000
****
Pt     0
S   9   1.00
2164481.60896527             0.0123200
1082240.80448263             0.0129700
 541120.402241316            0.0263700
 270560.201120658            0.0090400
 135280.100560329            0.0349800
  67640.0502801646           0.0122200
  33820.0251400823           0.0605200
  16910.0125700411           0.0649300
   8455.00628502057          0.1381900
S   1   1.00
   4227.50314251028          1.0000000
S   1   1.00
   2113.75157125514          1.0000000
S   1   1.00
   1056.87578562757          1.0000000
S   1   1.00
    528.437892813786         1.0000000
S   1   1.00
    264.218946406893         1.0000000
S   1   1.00
    132.109473203446         1.0000000
S   1   1.00
     66.0547366017232        1.0000000
S   1   1.00
     33.0273683008616        1.0000000
S   1   1.00
     16.5136841504308        1.0000000
S   1   1.00
      8.25684207521540       1.0000000
S   1   1.00
      4.12842103760770       1.0000000
S   1   1.00
      2.06421051880385       1.0000000
S   1   1.00
      1.03210525940192       1.0000000
S   1   1.00
      0.51605262970096       1.0000000
S   1   1.00
      0.25802631485048       1.0000000
S   1   1.00
      0.12901315742524       1.0000000
S   1   1.00
      0.06450657871262       1.0000000
P   7   1.00
  32357.9152575654           0.0050200
  14381.2956700291           0.0020200
   6391.68696445736          0.0180700
   2840.74976198105          0.0366200
   1262.55544976936          0.1117200
    561.135755453047         0.2558600
    249.393669090243         0.4260800
P   1   1.00
    110.841630706775         1.0000000
P   1   1.00
     49.2629469807888        1.0000000
P   1   1.00
     21.8946431025728        1.0000000
P   1   1.00
      9.73095249003235       1.0000000
P   1   1.00
      4.32486777334771       1.0000000
P   1   1.00
      1.92216345482120       1.0000000
P   1   1.00
      0.85429486880942       1.0000000
P   1   1.00
      0.37968660835974       1.0000000
P   1   1.00
      0.16874960371544       1.0000000
P   1   1.00
      0.07499982387353       1.0000000
P   1   1.00
      0.03333325505490       1.0000000
D   5   1.00
   1911.90035078584          0.0043300
    764.760140314335         0.0177800
    305.904056125734         0.0897100
    122.361622450294         0.3112300
     48.9446489801175        0.5320600
D   1   1.00
     19.5778595920470        1.0000000
D   1   1.00
      7.83114383681879       1.0000000
D   1   1.00
      3.13245753472752       1.0000000
D   1   1.00
      1.25298301389101       1.0000000
D   1   1.00
      0.50119320555640       1.0000000
D   1   1.00
      0.20047728222256       1.0000000
D   1   1.00
      0.08019091288902       1.0000000
D   1   1.00
      0.03207636515561       1.0000000
F   4   1.00
     82.2896809794193        0.0618700
     29.9235203561525        0.2482300
     10.8812801295100        0.4995600
      3.95682913800363       0.4038000
F   1   1.00
      1.43884695927405       1.0000000
F   1   1.00
      0.52321707609965       1.0000000
G   1   1.00
      2.67000000000000       1.0000000
G   1   1.00
      0.90960000000000       1.0000000
****







