%mem=30Gb
%nproc=24
#PBEPBE/gen scf=(maxcycle=500,conver=3) NMR=GIAO Scrf=(solvent=Dichloromethane)

estrutura 98

0 1
Pt       0.149453      -0.631782      -0.232077
P       -2.354264      -0.297600       0.014987
P        0.849121       1.557511      -0.039667
C       -2.966671      -1.007875       1.606143
C       -4.338043      -1.228440       1.837429
C       -2.056353      -1.241618       2.649138
C       -4.780727      -1.713655       3.070012
H       -5.071816      -1.015673       1.058667
C       -2.504391      -1.697081       3.894187
H       -0.993309      -1.053203       2.491084
C       -3.864692      -1.947268       4.102494
H       -5.846362      -1.904384       3.226560
H       -1.783894      -1.857311       4.701526
H       -4.214426      -2.316136       5.070211
C       -3.146732      -1.258184      -1.359947
C       -2.860887      -0.876341      -2.684250
C       -3.932591      -2.404282      -1.155091
C       -3.380390      -1.587857      -3.769449
H       -2.210841      -0.023606      -2.880849
C       -4.446148      -3.120478      -2.243375
H       -4.128513      -2.766999      -0.146455
C       -4.181078      -2.712637      -3.552896
H       -3.146244      -1.266588      -4.787000
H       -5.049914      -4.012353      -2.061118
H       -4.583025      -3.275866      -4.399987
C       -3.259307       1.334049       0.015574
C       -3.428770       2.010669       1.238990
C       -3.765499       1.931317      -1.151766
C       -4.097429       3.235962       1.293836
H       -3.051291       1.576216       2.165253
C       -4.427847       3.160917      -1.095372
H       -3.666461       1.437408      -2.117610
C       -4.599644       3.817757       0.126586
H       -4.228306       3.734513       2.257857
H       -4.815284       3.602739      -2.016538
H       -5.126600       4.774078       0.169753
C        2.633170       2.066028      -0.215219
C        3.490288       2.228210       0.885467
C        3.127923       2.348493      -1.502287
C        4.804675       2.668514       0.702602
H        3.142177       2.022773       1.896670
C        4.440282       2.788253      -1.681787
H        2.483763       2.241032      -2.376632
C        5.283914       2.951687      -0.578445
H        5.453796       2.791047       1.572821
H        4.802329       3.007173      -2.689636
H        6.309263       3.301765      -0.717416
C        0.407777       2.111998       1.666209
C       -0.375424       3.238832       1.960293
C        0.885040       1.319621       2.730054
C       -0.650509       3.582848       3.289186
H       -0.795216       3.849913       1.163137
C        0.616181       1.672823       4.054018
H        1.472857       0.421001       2.524200
C       -0.150323       2.808864       4.338291
H       -1.265683       4.461528       3.499652
H        1.003984       1.053097       4.866078
H       -0.362932       3.083881       5.374421
C        0.107150       2.699629      -1.284646
C        0.220725       4.098787      -1.172824
C       -0.438045       2.156481      -2.457866
C       -0.253639       4.929089      -2.190927
H        0.703109       4.550677      -0.303881
C       -0.894913       2.988155      -3.486116
H       -0.470413       1.071450      -2.576350
C       -0.816106       4.376346      -3.348260
H       -0.168280       6.014509      -2.086118
H       -1.307906       2.547400      -4.397168
H       -1.176570       5.028958      -4.147736
Sn       2.569548      -1.667730      -0.652672
Br      -0.491644      -3.125462      -0.223613
Br       3.930450      -1.418144       1.605133
C        3.909841      -0.846666      -2.183135
H        4.741952      -0.306084      -1.712877
H        4.296968      -1.701709      -2.759415
H        3.368177      -0.165312      -2.853655
C        2.859962      -3.816788      -0.907976
H        2.414484      -4.378225      -0.077976
H        2.386676      -4.128204      -1.851247
H        3.943334      -4.003407      -0.958825

H     0
S   5   1.00
    282.952156333090         0.0004300
     87.0622019486430        0.0005100
     26.7883698303517        0.0061600
      8.24257533241590       0.0130300
      2.53617702535874       0.0994900
S   1   1.00
      0.78036216164884       1.0000000
S   1   1.00
      0.24011143435349       1.0000000
P   1   1.00
      0.88150000000000       1.0000000
P   1   1.00
      0.17989200000000       1.0000000
****
C     0
S   6   1.00
   8846.12353391750          0.0005300
   2948.70784463917          0.0007700
    982.902614879722         0.0040500
    327.634204959907         0.0140300
    109.211401653302         0.0534500
     36.4038005511008        0.1702700
S   1   1.00
     12.1346001837003        1.0000000
S   1   1.00
      4.04486672790009       1.0000000
S   1   1.00
      1.34828890930003       1.0000000
S   1   1.00
      0.44942963643334       1.0000000
S   1   1.00
      0.14980987881111       1.0000000
P   4   1.00
     37.2940933931704        0.0039600
     11.4751056594370        0.0188900
      3.53080174136525       0.0946100
      1.08640053580469       0.3188900
P   1   1.00
      0.33427708793991       1.0000000
P   1   1.00
      0.10285448859689       1.0000000
D   1   1.00
      0.47750000000000       1.0000000
D   1   1.00
      0.11998000000000       1.0000000
****
P     0
S   7   1.00
  59538.0043013517           0.0009500
  21650.1833823097           0.0006100
   7872.79395720353          0.0037500
   2862.83416625583          0.0096300
   1041.03060591121          0.0324300
    378.556583967713         0.0995000
    137.656939624623         0.2657000
S   1   1.00
     50.0570689544083        1.0000000
S   1   1.00
     18.2025705288757        1.0000000
S   1   1.00
      6.61911655595482       1.0000000
S   1   1.00
      2.40695147489266       1.0000000
S   1   1.00
      0.87525508177915       1.0000000
S   1   1.00
      0.31827457519242       1.0000000
S   1   1.00
      0.11573620916088       1.0000000
S   1   1.00
      0.04208589424032       1.0000000
P   5   1.00
    487.996723151500         0.0021600
    162.665574383833         0.0097900
     54.2218581279445        0.0548500
     18.0739527093148        0.2177000
      6.02465090310494       0.4897800
P   1   1.00
      2.00821696770165       1.0000000
P   1   1.00
      0.66940565590055       1.0000000
P   1   1.00
      0.22313521863352       1.0000000
P   1   1.00
      0.07437840621117       1.0000000
P   1   1.00
      0.02479280207039       1.0000000
D   1   1.00
      0.35395000000000       1.0000000
D   1   1.00
      0.08909800000000       1.0000000
****
Br     0
S   7   1.00
 348670.995115554            0.0024100
 139468.398046222            0.0001200
  55787.3592184887           0.0058500
  22314.9436873955           0.0082100
   8925.97747495819          0.0240900
   3570.39098998328          0.0572500
   1428.15639599331          0.1446700
S   1   1.00
    571.262558397324         1.0000000
S   1   1.00
    228.505023358930         1.0000000
S   1   1.00
     91.4020093435719        1.0000000
S   1   1.00
     36.5608037374287        1.0000000
S   1   1.00
     14.6243214949715        1.0000000
S   1   1.00
      5.84972859798860       1.0000000
S   1   1.00
      2.33989143919544       1.0000000
S   1   1.00
      0.93595657567818       1.0000000
S   1   1.00
      0.37438263027127       1.0000000
S   1   1.00
      0.14975305210851       1.0000000
S   1   1.00
      0.05990122084340       1.0000000
P   5   1.00
   4271.50436123164          0.0020900
   1553.27431317514          0.0055700
    564.827022972778         0.0302500
    205.391644717374         0.1219600
     74.6878708063178        0.3786100
P   1   1.00
     27.1592257477519        1.0000000
P   1   1.00
      9.87608209009161       1.0000000
P   1   1.00
      3.59130257821513       1.0000000
P   1   1.00
      1.30592821026005       1.0000000
P   1   1.00
      0.47488298554911       1.0000000
P   1   1.00
      0.17268472201786       1.0000000
P   1   1.00
      0.06279444437013       1.0000000
P   1   1.00
      0.02283434340732       1.0000000
D   4   1.00
    157.766242822167         0.0079800
     52.5887476073889        0.0498700
     17.5295825357963        0.2240500
      5.84319417859877       0.4425000
D   1   1.00
      1.94773139286626       1.0000000
D   1   1.00
      0.64924379762209       1.0000000
F   1   1.00
      1.64800000000000       1.0000000
F   1   1.00
      0.45490000000000       1.0000000
****
Sn     0
S   8   1.00
 754482.145507175            0.0044300
 335325.398003189            0.0019800
 149033.510223639            0.0090500
  66237.1156549509           0.0048700
  29438.7180688671           0.0207700
  13083.8746972742           0.0329000
   5815.05542101078          0.0770100
   2584.46907600479          0.1516000
S   1   1.00
   1148.65292266880          1.0000000
S   1   1.00
    510.512410075020         1.0000000
S   1   1.00
    226.894404477787         1.0000000
S   1   1.00
    100.841957545683         1.0000000
S   1   1.00
     44.8186477980813        1.0000000
S   1   1.00
     19.9193990213695        1.0000000
S   1   1.00
      8.85306623171977       1.0000000
S   1   1.00
      3.93469610298656       1.0000000
S   1   1.00
      1.74875382354958       1.0000000
S   1   1.00
      0.77722392157759       1.0000000
S   1   1.00
      0.34543285403449       1.0000000
S   1   1.00
      0.15352571290422       1.0000000
S   1   1.00
      0.06823365017965       1.0000000
S   1   1.00
      0.01347825188734       1.0000000
P   5   1.00
  10090.6583042438           0.0027500
   4036.26332169752          0.0041800
   1614.50532867901          0.0208900
    645.802131471604         0.0713700
    258.320852588642         0.2261300
P   1   1.00
    103.328341035457         1.0000000
P   1   1.00
     41.3313364141826        1.0000000
P   1   1.00
     16.5325345656731        1.0000000
P   1   1.00
      6.61301382626922       1.0000000
P   1   1.00
      2.64520553050769       1.0000000
P   1   1.00
      1.05808221220308       1.0000000
P   1   1.00
      0.42323288488123       1.0000000
P   1   1.00
      0.16929315395249       1.0000000
P   1   1.00
      0.06771726158100       1.0000000
P   1   1.00
      0.02708690463240       1.0000000
P   1   1.00
      0.01083476185296       1.0000000
D   4   1.00
    554.302506505741         0.0043700
    201.564547820269         0.0251100
     73.2961992073707        0.1331600
     26.6531633481348        0.3890000
D   1   1.00
      9.69205939932174       1.0000000
D   1   1.00
      3.52438523611700       1.0000000
D   1   1.00
      1.28159463131527       1.0000000
D   1   1.00
      0.46603441138737       1.0000000
D   1   1.00
      0.16946705868632       1.0000000
F   1   1.00
      1.31400000000000       1.0000000
F   1   1.00
      0.19993000000000       1.0000000
****
Pt     0
S   9   1.00
2164481.60896527             0.0123200
1082240.80448263             0.0129700
 541120.402241316            0.0263700
 270560.201120658            0.0090400
 135280.100560329            0.0349800
  67640.0502801646           0.0122200
  33820.0251400823           0.0605200
  16910.0125700411           0.0649300
   8455.00628502057          0.1381900
S   1   1.00
   4227.50314251028          1.0000000
S   1   1.00
   2113.75157125514          1.0000000
S   1   1.00
   1056.87578562757          1.0000000
S   1   1.00
    528.437892813786         1.0000000
S   1   1.00
    264.218946406893         1.0000000
S   1   1.00
    132.109473203446         1.0000000
S   1   1.00
     66.0547366017232        1.0000000
S   1   1.00
     33.0273683008616        1.0000000
S   1   1.00
     16.5136841504308        1.0000000
S   1   1.00
      8.25684207521540       1.0000000
S   1   1.00
      4.12842103760770       1.0000000
S   1   1.00
      2.06421051880385       1.0000000
S   1   1.00
      1.03210525940192       1.0000000
S   1   1.00
      0.51605262970096       1.0000000
S   1   1.00
      0.25802631485048       1.0000000
S   1   1.00
      0.12901315742524       1.0000000
S   1   1.00
      0.06450657871262       1.0000000
P   7   1.00
  32357.9152575654           0.0050200
  14381.2956700291           0.0020200
   6391.68696445736          0.0180700
   2840.74976198105          0.0366200
   1262.55544976936          0.1117200
    561.135755453047         0.2558600
    249.393669090243         0.4260800
P   1   1.00
    110.841630706775         1.0000000
P   1   1.00
     49.2629469807888        1.0000000
P   1   1.00
     21.8946431025728        1.0000000
P   1   1.00
      9.73095249003235       1.0000000
P   1   1.00
      4.32486777334771       1.0000000
P   1   1.00
      1.92216345482120       1.0000000
P   1   1.00
      0.85429486880942       1.0000000
P   1   1.00
      0.37968660835974       1.0000000
P   1   1.00
      0.16874960371544       1.0000000
P   1   1.00
      0.07499982387353       1.0000000
P   1   1.00
      0.03333325505490       1.0000000
D   5   1.00
   1911.90035078584          0.0043300
    764.760140314335         0.0177800
    305.904056125734         0.0897100
    122.361622450294         0.3112300
     48.9446489801175        0.5320600
D   1   1.00
     19.5778595920470        1.0000000
D   1   1.00
      7.83114383681879       1.0000000
D   1   1.00
      3.13245753472752       1.0000000
D   1   1.00
      1.25298301389101       1.0000000
D   1   1.00
      0.50119320555640       1.0000000
D   1   1.00
      0.20047728222256       1.0000000
D   1   1.00
      0.08019091288902       1.0000000
D   1   1.00
      0.03207636515561       1.0000000
F   4   1.00
     82.2896809794193        0.0618700
     29.9235203561525        0.2482300
     10.8812801295100        0.4995600
      3.95682913800363       0.4038000
F   1   1.00
      1.43884695927405       1.0000000
F   1   1.00
      0.52321707609965       1.0000000
G   1   1.00
      2.67000000000000       1.0000000
G   1   1.00
      0.90960000000000       1.0000000
****






