%mem=100Gb
%nproc=32
#PBEPBE/gen scf=(maxcycle=500,conver=4) NMR=GIAO Scrf=(solvent=Dichloromethane)

estrutura 46

0 1
Pt       1.792951      -0.312169      -0.347641
Cl       0.256411       1.577508      -0.971096
Cl      -0.262889      -1.692548      -0.703731
Sn       2.996454      -2.528228       0.195569
Cl       2.635180      -4.200785      -1.490106
Cl       2.231081      -3.634577       2.184433
Cl       5.375753      -2.706419       0.452772
Pt      -1.810026       0.271395      -0.398654
Sn      -2.916867       2.540938       0.141621
Cl      -2.658558       4.198434      -1.577842
Cl      -1.920611       3.611065       2.046352
Cl      -5.246700       2.821794       0.651521
P        3.683001       0.947438      -0.059826
P       -3.709540      -0.944780      -0.013681
C        4.394574       0.681185       1.611111
C        5.772826       0.647130       1.880389
C        3.495545       0.544908       2.684001
C        6.232402       0.502366       3.188945
H        6.499908       0.713658       1.072172
C        3.966189       0.408083       3.991485
H        2.417919       0.535254       2.499128
C        5.341965       0.391435       4.270977
H        7.310295       0.469757       3.372122
H        3.246925       0.305992       4.808510
C        4.919435       0.640043      -1.380502
C        6.132527       1.354743      -1.430728
C        4.620595      -0.243158      -2.432225
C        7.030480       1.151259      -2.478725
H        6.381694       2.095780      -0.666823
C        5.514519      -0.421316      -3.490688
H        3.671781      -0.781790      -2.440050
C        6.740648       0.262370      -3.529976
H        7.971235       1.708737      -2.489072
H        5.245407      -1.102301      -4.303863
C        3.368860       2.751499      -0.181030
C        3.211945       3.330810      -1.453496
C        3.259168       3.570493       0.953155
C        2.963905       4.695681      -1.581109
H        3.285986       2.715969      -2.353218
C        3.009170       4.937683       0.813204
H        3.374199       3.151420       1.953881
C        2.861070       5.527252      -0.451870
H        2.846278       5.125097      -2.579752
H        2.930655       5.558212       1.710005
C       -4.258697      -0.769300       1.723482
C       -5.562274      -0.419967       2.102988
C       -3.292673      -0.975575       2.728309
C       -5.893681      -0.299831       3.455504
H       -6.325460      -0.216600       1.351076
C       -3.636764      -0.862158       4.073911
H       -2.261741      -1.219028       2.458615
C       -4.945690      -0.525487       4.464851
H       -6.913829      -0.015361       3.728280
H       -2.871445      -1.029919       4.836032
C       -3.453047      -2.740718      -0.297838
C       -3.108257      -3.163800      -1.593922
C       -3.616493      -3.704898       0.708305
C       -2.925364      -4.516969      -1.869957
H       -2.973160      -2.434369      -2.395243
C       -3.434277      -5.059029       0.419361
H       -3.890325      -3.408846       1.722218
C       -3.084815      -5.491435      -0.870403
H       -2.648901      -4.822929      -2.882760
H       -3.567273      -5.793829       1.217647
C       -5.076148      -0.549575      -1.171675
C       -6.307107      -1.230040      -1.073499
C       -4.885028       0.338851      -2.239760
C       -7.322762      -0.985497      -1.996692
H       -6.478292      -1.963399      -0.280748
C       -5.904076       0.564383      -3.168482
H       -3.928860       0.848564      -2.367572
C       -7.143968      -0.084342      -3.060677
H       -8.273100      -1.518565      -1.895163
H       -5.723746       1.256229      -3.997763
C        7.717176       0.053475      -4.658623
H        8.310020       0.961493      -4.847995
H        8.427027      -0.756679      -4.415301
H        7.204327      -0.229818      -5.590714
C        5.856778       0.263078       5.681589
H        6.645610      -0.502296       5.750715
H        6.301474       1.213564       6.022936
H        5.054059      -0.002594       6.383955
C       -5.314699      -0.423444       5.923102
H       -6.244548       0.147658       6.064256
H       -5.472529      -1.427537       6.357841
H       -4.515093       0.058410       6.507595
C       -8.252255       0.187072      -4.044888
H       -8.847187      -0.717294      -4.238395
H       -8.943404       0.953348      -3.653257
H       -7.859796       0.559817      -5.001869
C       -2.906153      -6.956558      -1.174423
H       -3.884458      -7.449478      -1.311543
H       -2.325687      -7.108818      -2.095522
H       -2.394616      -7.478644      -0.349739
C        2.627177       7.008472      -0.600962
H        3.582343       7.539028      -0.757848
H        1.988496       7.229740      -1.469300
H        2.157686       7.436313       0.296401

H     0 
S   5   1.00
    282.952156333090         0.0004300        
     87.0622019486430        0.0005100        
     26.7883698303517        0.0061600        
      8.24257533241590       0.0130300        
      2.53617702535874       0.0994900        
S   1   1.00
      0.78036216164884       1.0000000        
S   1   1.00
      0.24011143435349       1.0000000        
P   1   1.00
      0.88150000000000       1.0000000        
P   1   1.00
      0.17989200000000       1.0000000        
****
C     0 
S   6   1.00
   8846.12353391750          0.0005300        
   2948.70784463917          0.0007700        
    982.902614879722         0.0040500        
    327.634204959907         0.0140300        
    109.211401653302         0.0534500        
     36.4038005511008        0.1702700        
S   1   1.00
     12.1346001837003        1.0000000        
S   1   1.00
      4.04486672790009       1.0000000        
S   1   1.00
      1.34828890930003       1.0000000        
S   1   1.00
      0.44942963643334       1.0000000        
S   1   1.00
      0.14980987881111       1.0000000        
P   4   1.00
     37.2940933931704        0.0039600        
     11.4751056594370        0.0188900        
      3.53080174136525       0.0946100        
      1.08640053580469       0.3188900        
P   1   1.00
      0.33427708793991       1.0000000        
P   1   1.00
      0.10285448859689       1.0000000        
D   1   1.00
      0.47750000000000       1.0000000        
D   1   1.00
      0.11998000000000       1.0000000        
****
P     0 
S   7   1.00
  59538.0043013517           0.0009500        
  21650.1833823097           0.0006100        
   7872.79395720353          0.0037500        
   2862.83416625583          0.0096300        
   1041.03060591121          0.0324300        
    378.556583967713         0.0995000        
    137.656939624623         0.2657000        
S   1   1.00
     50.0570689544083        1.0000000        
S   1   1.00
     18.2025705288757        1.0000000        
S   1   1.00
      6.61911655595482       1.0000000        
S   1   1.00
      2.40695147489266       1.0000000        
S   1   1.00
      0.87525508177915       1.0000000        
S   1   1.00
      0.31827457519242       1.0000000        
S   1   1.00
      0.11573620916088       1.0000000        
S   1   1.00
      0.04208589424032       1.0000000        
P   5   1.00
    487.996723151500         0.0021600        
    162.665574383833         0.0097900        
     54.2218581279445        0.0548500        
     18.0739527093148        0.2177000        
      6.02465090310494       0.4897800        
P   1   1.00
      2.00821696770165       1.0000000        
P   1   1.00
      0.66940565590055       1.0000000        
P   1   1.00
      0.22313521863352       1.0000000        
P   1   1.00
      0.07437840621117       1.0000000        
P   1   1.00
      0.02479280207039       1.0000000        
D   1   1.00
      0.35395000000000       1.0000000        
D   1   1.00
      0.08909800000000       1.0000000        
****
Cl     0 
S   7   1.00
  77142.8171643825           0.0010600        
  28051.9335143209           0.0006400        
  10200.7030961167           0.0039600        
   3709.34658040607          0.0098300        
   1348.85330196584          0.0326900        
    490.492109805761         0.0995200        
    178.360767202095         0.2655500        
S   1   1.00
     64.8584608007618        1.0000000        
S   1   1.00
     23.5848948366407        1.0000000        
S   1   1.00
      8.57632539514206       1.0000000        
S   1   1.00
      3.11866378005166       1.0000000        
S   1   1.00
      1.13405955638242       1.0000000        
S   1   1.00
      0.41238529322997       1.0000000        
S   1   1.00
      0.14995828844726       1.0000000        
S   1   1.00
      0.05453028670810       1.0000000        
P   5   1.00
    694.985360568515         0.0020000        
    231.661786856172         0.0089500        
     77.2205956187239        0.0511300        
     25.7401985395746        0.2101100        
      8.58006617985821       0.4973800        
P   1   1.00
      2.86002205995274       1.0000000        
P   1   1.00
      0.95334068665091       1.0000000        
P   1   1.00
      0.31778022888364       1.0000000        
P   1   1.00
      0.10592674296121       1.0000000        
P   1   1.00
      0.03530891432040       1.0000000        
D   1   1.00
      0.55696000000000       1.0000000        
D   1   1.00
      0.15619100000000       1.0000000        
****
Sn     0 
S   8   1.00
 754482.145507175            0.0044300        
 335325.398003189            0.0019800        
 149033.510223639            0.0090500        
  66237.1156549509           0.0048700        
  29438.7180688671           0.0207700        
  13083.8746972742           0.0329000        
   5815.05542101078          0.0770100        
   2584.46907600479          0.1516000        
S   1   1.00
   1148.65292266880          1.0000000        
S   1   1.00
    510.512410075020         1.0000000        
S   1   1.00
    226.894404477787         1.0000000        
S   1   1.00
    100.841957545683         1.0000000        
S   1   1.00
     44.8186477980813        1.0000000        
S   1   1.00
     19.9193990213695        1.0000000        
S   1   1.00
      8.85306623171977       1.0000000        
S   1   1.00
      3.93469610298656       1.0000000        
S   1   1.00
      1.74875382354958       1.0000000        
S   1   1.00
      0.77722392157759       1.0000000        
S   1   1.00
      0.34543285403449       1.0000000        
S   1   1.00
      0.15352571290422       1.0000000        
S   1   1.00
      0.06823365017965       1.0000000        
S   1   1.00
      0.01347825188734       1.0000000        
P   5   1.00
  10090.6583042438           0.0027500        
   4036.26332169752          0.0041800        
   1614.50532867901          0.0208900        
    645.802131471604         0.0713700        
    258.320852588642         0.2261300        
P   1   1.00
    103.328341035457         1.0000000        
P   1   1.00
     41.3313364141826        1.0000000        
P   1   1.00
     16.5325345656731        1.0000000        
P   1   1.00
      6.61301382626922       1.0000000        
P   1   1.00
      2.64520553050769       1.0000000        
P   1   1.00
      1.05808221220308       1.0000000        
P   1   1.00
      0.42323288488123       1.0000000        
P   1   1.00
      0.16929315395249       1.0000000        
P   1   1.00
      0.06771726158100       1.0000000        
P   1   1.00
      0.02708690463240       1.0000000        
P   1   1.00
      0.01083476185296       1.0000000        
D   4   1.00
    554.302506505741         0.0043700        
    201.564547820269         0.0251100        
     73.2961992073707        0.1331600        
     26.6531633481348        0.3890000        
D   1   1.00
      9.69205939932174       1.0000000        
D   1   1.00
      3.52438523611700       1.0000000        
D   1   1.00
      1.28159463131527       1.0000000        
D   1   1.00
      0.46603441138737       1.0000000        
D   1   1.00
      0.16946705868632       1.0000000        
F   1   1.00
      1.31400000000000       1.0000000        
F   1   1.00
      0.19993000000000       1.0000000        
****
Pt     0 
S   9   1.00
 2164481.60896527            0.0123200        
 1082240.80448263            0.0129700        
 541120.402241316            0.0263700        
 270560.201120658            0.0090400        
 135280.100560329            0.0349800        
  67640.0502801646           0.0122200        
  33820.0251400823           0.0605200        
  16910.0125700411           0.0649300        
   8455.00628502057          0.1381900        
S   1   1.00
   4227.50314251028          1.0000000        
S   1   1.00
   2113.75157125514          1.0000000        
S   1   1.00
   1056.87578562757          1.0000000        
S   1   1.00
    528.437892813786         1.0000000        
S   1   1.00
    264.218946406893         1.0000000        
S   1   1.00
    132.109473203446         1.0000000        
S   1   1.00
     66.0547366017232        1.0000000        
S   1   1.00
     33.0273683008616        1.0000000        
S   1   1.00
     16.5136841504308        1.0000000        
S   1   1.00
      8.25684207521540       1.0000000        
S   1   1.00
      4.12842103760770       1.0000000        
S   1   1.00
      2.06421051880385       1.0000000        
S   1   1.00
      1.03210525940192       1.0000000        
S   1   1.00
      0.51605262970096       1.0000000        
S   1   1.00
      0.25802631485048       1.0000000        
S   1   1.00
      0.12901315742524       1.0000000        
S   1   1.00
      0.06450657871262       1.0000000        
P   7   1.00
  32357.9152575654           0.0050200        
  14381.2956700291           0.0020200        
   6391.68696445736          0.0180700        
   2840.74976198105          0.0366200        
   1262.55544976936          0.1117200        
    561.135755453047         0.2558600        
    249.393669090243         0.4260800        
P   1   1.00
    110.841630706775         1.0000000        
P   1   1.00
     49.2629469807888        1.0000000        
P   1   1.00
     21.8946431025728        1.0000000        
P   1   1.00
      9.73095249003235       1.0000000        
P   1   1.00
      4.32486777334771       1.0000000        
P   1   1.00
      1.92216345482120       1.0000000        
P   1   1.00
      0.85429486880942       1.0000000        
P   1   1.00
      0.37968660835974       1.0000000        
P   1   1.00
      0.16874960371544       1.0000000        
P   1   1.00
      0.07499982387353       1.0000000        
P   1   1.00
      0.03333325505490       1.0000000        
D   5   1.00
   1911.90035078584          0.0043300        
    764.760140314335         0.0177800        
    305.904056125734         0.0897100        
    122.361622450294         0.3112300        
     48.9446489801175        0.5320600        
D   1   1.00
     19.5778595920470        1.0000000        
D   1   1.00
      7.83114383681879       1.0000000        
D   1   1.00
      3.13245753472752       1.0000000        
D   1   1.00
      1.25298301389101       1.0000000        
D   1   1.00
      0.50119320555640       1.0000000        
D   1   1.00
      0.20047728222256       1.0000000        
D   1   1.00
      0.08019091288902       1.0000000        
D   1   1.00
      0.03207636515561       1.0000000        
F   4   1.00
     82.2896809794193        0.0618700        
     29.9235203561525        0.2482300        
     10.8812801295100        0.4995600        
      3.95682913800363       0.4038000        
F   1   1.00
      1.43884695927405       1.0000000        
F   1   1.00
      0.52321707609965       1.0000000        
G   1   1.00
      2.67000000000000       1.0000000        
G   1   1.00
      0.90960000000000       1.0000000        
****




