%mem=30Gb
%nproc=24
#PBEPBE/gen scf=(maxcycle=500,conver=3) NMR=GIAO Scrf=(solvent=Dichloromethane)

estrutura 95

0 1
Pt       0.180630      -0.711229      -0.148614
P       -2.281949      -0.428754      -0.030003
P        0.929207       1.460703       0.010660
C       -2.867914      -1.020941       1.619513
C       -4.210508      -0.846840       2.008525
C       -1.975589      -1.631094       2.516895
C       -4.650300      -1.287646       3.258992
H       -4.919067      -0.354034       1.339645
C       -2.418674      -2.067436       3.769963
H       -0.930238      -1.764535       2.238752
C       -3.755015      -1.899930       4.142886
H       -5.696585      -1.144673       3.545400
H       -1.711464      -2.535955       4.457428
H       -4.099203      -2.239480       5.123209
C       -3.078338      -1.502786      -1.305250
C       -2.572348      -1.460556      -2.616573
C       -4.166630      -2.342749      -1.024298
C       -3.160082      -2.218831      -3.631588
H       -1.699727      -0.845358      -2.847694
C       -4.750072      -3.108661      -2.039212
H       -4.561271      -2.417950      -0.012057
C       -4.253467      -3.044971      -3.344702
H       -2.753298      -2.173304      -4.646223
H       -5.595502      -3.761703      -1.802819
H       -4.710400      -3.644733      -4.135598
C       -3.190609       1.174938      -0.202823
C       -3.187796       2.081236       0.874137
C       -3.879783       1.519675      -1.377230
C       -3.862833       3.300254       0.777789
H       -2.668805       1.829820       1.801947
C       -4.551693       2.742846      -1.471607
H       -3.905860       0.832973      -2.223986
C       -4.545615       3.636410      -0.396438
H       -3.859395       3.987898       1.627177
H       -5.086246       2.993296      -2.392106
H       -5.075965       4.589086      -0.470186
C        2.698578       1.784224      -0.414917
C        3.522286       2.610773       0.363838
C        3.187907       1.267972      -1.626104
C        4.821766       2.906882      -0.060867
H        3.161932       3.023631       1.307464
C        4.486750       1.563419      -2.044795
H        2.562698       0.617088      -2.241835
C        5.307013       2.384556      -1.263199
H        5.457539       3.546786       0.556565
H        4.860106       1.141247      -2.981017
H        6.324754       2.613275      -1.589796
C        0.715182       2.083773       1.728935
C       -0.158538       3.127921       2.070674
C        1.431404       1.427099       2.749941
C       -0.310862       3.511820       3.408245
H       -0.731076       3.646821       1.302040
C        1.278339       1.817727       4.081440
H        2.126167       0.619528       2.505477
C        0.405107       2.859788       4.415132
H       -0.994277       4.326971       3.658905
H        1.844954       1.303822       4.862160
H        0.285057       3.162349       5.458311
C        0.153048       2.659993      -1.160322
C        0.401402       4.040804      -1.037496
C       -0.535654       2.192401      -2.288672
C       -0.066167       4.930962      -2.005804
H        0.978108       4.428577      -0.195313
C       -0.989009       3.084510      -3.266177
H       -0.702666       1.122233      -2.416837
C       -0.762879       4.454974      -3.123154
H        0.127271       6.000584      -1.893620
H       -1.519716       2.701843      -4.141460
H       -1.119348       5.152827      -3.884759
Sn       2.498103      -1.974608       0.099701
Cl      -0.340872      -3.099634      -0.334271
Cl       4.261272      -0.834751       1.403113
C        2.772105      -3.932565       1.002224
H        3.843061      -4.065426       1.204128
H        2.201480      -3.967292       1.940985
H        2.404398      -4.703013       0.312829
Cl       3.595856      -2.306546      -2.068697

H     0
S   5   1.00
    282.952156333090         0.0004300
     87.0622019486430        0.0005100
     26.7883698303517        0.0061600
      8.24257533241590       0.0130300
      2.53617702535874       0.0994900
S   1   1.00
      0.78036216164884       1.0000000
S   1   1.00
      0.24011143435349       1.0000000
P   1   1.00
      0.88150000000000       1.0000000
P   1   1.00
      0.17989200000000       1.0000000
****
C     0
S   6   1.00
   8846.12353391750          0.0005300
   2948.70784463917          0.0007700
    982.902614879722         0.0040500
    327.634204959907         0.0140300
    109.211401653302         0.0534500
     36.4038005511008        0.1702700
S   1   1.00
     12.1346001837003        1.0000000
S   1   1.00
      4.04486672790009       1.0000000
S   1   1.00
      1.34828890930003       1.0000000
S   1   1.00
      0.44942963643334       1.0000000
S   1   1.00
      0.14980987881111       1.0000000
P   4   1.00
     37.2940933931704        0.0039600
     11.4751056594370        0.0188900
      3.53080174136525       0.0946100
      1.08640053580469       0.3188900
P   1   1.00
      0.33427708793991       1.0000000
P   1   1.00
      0.10285448859689       1.0000000
D   1   1.00
      0.47750000000000       1.0000000
D   1   1.00
      0.11998000000000       1.0000000
****
P     0
S   7   1.00
  59538.0043013517           0.0009500
  21650.1833823097           0.0006100
   7872.79395720353          0.0037500
   2862.83416625583          0.0096300
   1041.03060591121          0.0324300
    378.556583967713         0.0995000
    137.656939624623         0.2657000
S   1   1.00
     50.0570689544083        1.0000000
S   1   1.00
     18.2025705288757        1.0000000
S   1   1.00
      6.61911655595482       1.0000000
S   1   1.00
      2.40695147489266       1.0000000
S   1   1.00
      0.87525508177915       1.0000000
S   1   1.00
      0.31827457519242       1.0000000
S   1   1.00
      0.11573620916088       1.0000000
S   1   1.00
      0.04208589424032       1.0000000
P   5   1.00
    487.996723151500         0.0021600
    162.665574383833         0.0097900
     54.2218581279445        0.0548500
     18.0739527093148        0.2177000
      6.02465090310494       0.4897800
P   1   1.00
      2.00821696770165       1.0000000
P   1   1.00
      0.66940565590055       1.0000000
P   1   1.00
      0.22313521863352       1.0000000
P   1   1.00
      0.07437840621117       1.0000000
P   1   1.00
      0.02479280207039       1.0000000
D   1   1.00
      0.35395000000000       1.0000000
D   1   1.00
      0.08909800000000       1.0000000
****
Cl     0
S   7   1.00
  77142.8171643825           0.0010600
  28051.9335143209           0.0006400
  10200.7030961167           0.0039600
   3709.34658040607          0.0098300
   1348.85330196584          0.0326900
    490.492109805761         0.0995200
    178.360767202095         0.2655500
S   1   1.00
     64.8584608007618        1.0000000
S   1   1.00
     23.5848948366407        1.0000000
S   1   1.00
      8.57632539514206       1.0000000
S   1   1.00
      3.11866378005166       1.0000000
S   1   1.00
      1.13405955638242       1.0000000
S   1   1.00
      0.41238529322997       1.0000000
S   1   1.00
      0.14995828844726       1.0000000
S   1   1.00
      0.05453028670810       1.0000000
P   5   1.00
    694.985360568515         0.0020000
    231.661786856172         0.0089500
     77.2205956187239        0.0511300
     25.7401985395746        0.2101100
      8.58006617985821       0.4973800
P   1   1.00
      2.86002205995274       1.0000000
P   1   1.00
      0.95334068665091       1.0000000
P   1   1.00
      0.31778022888364       1.0000000
P   1   1.00
      0.10592674296121       1.0000000
P   1   1.00
      0.03530891432040       1.0000000
D   1   1.00
      0.55696000000000       1.0000000
D   1   1.00
      0.15619100000000       1.0000000
****
Sn     0
S   8   1.00
 754482.145507175            0.0044300
 335325.398003189            0.0019800
 149033.510223639            0.0090500
  66237.1156549509           0.0048700
  29438.7180688671           0.0207700
  13083.8746972742           0.0329000
   5815.05542101078          0.0770100
   2584.46907600479          0.1516000
S   1   1.00
   1148.65292266880          1.0000000
S   1   1.00
    510.512410075020         1.0000000
S   1   1.00
    226.894404477787         1.0000000
S   1   1.00
    100.841957545683         1.0000000
S   1   1.00
     44.8186477980813        1.0000000
S   1   1.00
     19.9193990213695        1.0000000
S   1   1.00
      8.85306623171977       1.0000000
S   1   1.00
      3.93469610298656       1.0000000
S   1   1.00
      1.74875382354958       1.0000000
S   1   1.00
      0.77722392157759       1.0000000
S   1   1.00
      0.34543285403449       1.0000000
S   1   1.00
      0.15352571290422       1.0000000
S   1   1.00
      0.06823365017965       1.0000000
S   1   1.00
      0.01347825188734       1.0000000
P   5   1.00
  10090.6583042438           0.0027500
   4036.26332169752          0.0041800
   1614.50532867901          0.0208900
    645.802131471604         0.0713700
    258.320852588642         0.2261300
P   1   1.00
    103.328341035457         1.0000000
P   1   1.00
     41.3313364141826        1.0000000
P   1   1.00
     16.5325345656731        1.0000000
P   1   1.00
      6.61301382626922       1.0000000
P   1   1.00
      2.64520553050769       1.0000000
P   1   1.00
      1.05808221220308       1.0000000
P   1   1.00
      0.42323288488123       1.0000000
P   1   1.00
      0.16929315395249       1.0000000
P   1   1.00
      0.06771726158100       1.0000000
P   1   1.00
      0.02708690463240       1.0000000
P   1   1.00
      0.01083476185296       1.0000000
D   4   1.00
    554.302506505741         0.0043700
    201.564547820269         0.0251100
     73.2961992073707        0.1331600
     26.6531633481348        0.3890000
D   1   1.00
      9.69205939932174       1.0000000
D   1   1.00
      3.52438523611700       1.0000000
D   1   1.00
      1.28159463131527       1.0000000
D   1   1.00
      0.46603441138737       1.0000000
D   1   1.00
      0.16946705868632       1.0000000
F   1   1.00
      1.31400000000000       1.0000000
F   1   1.00
      0.19993000000000       1.0000000
****
Pt     0
S   9   1.00
2164481.60896527             0.0123200
1082240.80448263             0.0129700
 541120.402241316            0.0263700
 270560.201120658            0.0090400
 135280.100560329            0.0349800
  67640.0502801646           0.0122200
  33820.0251400823           0.0605200
  16910.0125700411           0.0649300
   8455.00628502057          0.1381900
S   1   1.00
   4227.50314251028          1.0000000
S   1   1.00
   2113.75157125514          1.0000000
S   1   1.00
   1056.87578562757          1.0000000
S   1   1.00
    528.437892813786         1.0000000
S   1   1.00
    264.218946406893         1.0000000
S   1   1.00
    132.109473203446         1.0000000
S   1   1.00
     66.0547366017232        1.0000000
S   1   1.00
     33.0273683008616        1.0000000
S   1   1.00
     16.5136841504308        1.0000000
S   1   1.00
      8.25684207521540       1.0000000
S   1   1.00
      4.12842103760770       1.0000000
S   1   1.00
      2.06421051880385       1.0000000
S   1   1.00
      1.03210525940192       1.0000000
S   1   1.00
      0.51605262970096       1.0000000
S   1   1.00
      0.25802631485048       1.0000000
S   1   1.00
      0.12901315742524       1.0000000
S   1   1.00
      0.06450657871262       1.0000000
P   7   1.00
  32357.9152575654           0.0050200
  14381.2956700291           0.0020200
   6391.68696445736          0.0180700
   2840.74976198105          0.0366200
   1262.55544976936          0.1117200
    561.135755453047         0.2558600
    249.393669090243         0.4260800
P   1   1.00
    110.841630706775         1.0000000
P   1   1.00
     49.2629469807888        1.0000000
P   1   1.00
     21.8946431025728        1.0000000
P   1   1.00
      9.73095249003235       1.0000000
P   1   1.00
      4.32486777334771       1.0000000
P   1   1.00
      1.92216345482120       1.0000000
P   1   1.00
      0.85429486880942       1.0000000
P   1   1.00
      0.37968660835974       1.0000000
P   1   1.00
      0.16874960371544       1.0000000
P   1   1.00
      0.07499982387353       1.0000000
P   1   1.00
      0.03333325505490       1.0000000
D   5   1.00
   1911.90035078584          0.0043300
    764.760140314335         0.0177800
    305.904056125734         0.0897100
    122.361622450294         0.3112300
     48.9446489801175        0.5320600
D   1   1.00
     19.5778595920470        1.0000000
D   1   1.00
      7.83114383681879       1.0000000
D   1   1.00
      3.13245753472752       1.0000000
D   1   1.00
      1.25298301389101       1.0000000
D   1   1.00
      0.50119320555640       1.0000000
D   1   1.00
      0.20047728222256       1.0000000
D   1   1.00
      0.08019091288902       1.0000000
D   1   1.00
      0.03207636515561       1.0000000
F   4   1.00
     82.2896809794193        0.0618700
     29.9235203561525        0.2482300
     10.8812801295100        0.4995600
      3.95682913800363       0.4038000
F   1   1.00
      1.43884695927405       1.0000000
F   1   1.00
      0.52321707609965       1.0000000
G   1   1.00
      2.67000000000000       1.0000000
G   1   1.00
      0.90960000000000       1.0000000
****







