%mem=7Gb
%nproc=4
#PBEPBE/gen scf=(maxcycle=500,conver=3) NMR=GIAO Scrf=(solvent=Dichloromethane)

estrutura 104

0 1
Pt       0.087222       0.829960       0.107891
P       -2.278352       1.153689      -0.077169
C       -3.558479      -0.186788      -0.207378
C       -4.194012      -0.518558      -1.414487
C       -3.950887      -0.850682       0.968575
C       -5.203004      -1.486758      -1.442457
H       -3.917014      -0.017551      -2.341703
C       -4.960175      -1.815591       0.938718
H       -3.485146      -0.596724       1.924334
C       -5.590355      -2.136679      -0.269319
H       -5.688793      -1.727974      -2.391946
H       -5.258102      -2.313534       1.864311
H       -6.385709      -2.885937      -0.292186
C       -2.505602       2.126410      -1.629059
C       -3.120620       3.387735      -1.660907
C       -1.976773       1.591760      -2.817867
C       -3.216123       4.093708      -2.865453
H       -3.512414       3.834590      -0.746607
C       -2.079778       2.296929      -4.019291
H       -1.477669       0.618197      -2.805669
C       -2.700563       3.552360      -4.045708
H       -3.691776       5.078801      -2.874411
H       -1.667730       1.868997      -4.935449
H       -2.774136       4.109269      -4.983107
C       -3.005196       2.115212       1.323818
C       -4.376971       2.433928       1.315740
C       -2.235803       2.453423       2.446053
C       -4.959621       3.090445       2.404115
H       -5.003612       2.157168       0.464020
C       -2.823265       3.100850       3.537571
H       -1.173330       2.215250       2.461784
C       -4.182370       3.421707       3.520095
H       -6.026370       3.332112       2.381542
H       -2.212936       3.354613       4.406921
H       -4.641898       3.925881       4.374284
Sn       0.055156      -1.821560       0.039595
C       -0.915466      -2.709077       1.824054
H       -0.084086      -3.010366       2.485827
H       -1.390868      -1.837867       2.299560
C        1.921264      -2.875356      -0.516116
H        2.148230      -2.546995      -1.542453
H        2.679674      -2.417784       0.135317
Cl       0.120814       3.339977       0.143489
P        2.460753       0.789599       0.152910
C        3.286830       2.424242       0.415410
C        3.368776       2.953359       1.714991
C        3.791277       3.172693      -0.658915
C        3.947605       4.205131       1.934054
H        2.979156       2.391433       2.566241
C        4.371999       4.425981      -0.435255
H        3.733179       2.785942      -1.677452
C        4.451081       4.945781       0.859116
H        4.002732       4.603726       2.950096
H        4.761849       4.997385      -1.281346
H        4.902645       5.926136       1.031500
C        3.133892      -0.188441       1.577724
C        4.457234      -0.656194       1.685751
C        2.269284      -0.370273       2.675580
C        4.883123      -1.331777       2.830760
H        5.181977      -0.492225       0.887897
C        2.707849      -1.015874       3.834410
H        1.246337       0.015176       2.623780
C        4.010862      -1.514330       3.910730
H        5.907099      -1.708801       2.882669
H        2.024388      -1.129262       4.680884
H        4.350982      -2.034468       4.810019
C        3.103088       0.234608      -1.493323
C        4.360828      -0.349079      -1.732200
C        2.261778       0.482961      -2.595419
C        4.751466      -0.694420      -3.028923
H        5.051831      -0.553183      -0.920246
C        2.662384       0.155605      -3.893168
H        1.277639       0.934762      -2.436288
C        3.905518      -0.443845      -4.114040
H        5.727184      -1.163891      -3.187253
H        1.993808       0.361948      -4.730563
H        4.214169      -0.714763      -5.126682
Cl      -1.361323      -2.527348      -1.865844
C       -1.925193      -3.851251       1.651614
H       -2.595202      -3.861003       2.533019
H       -2.580601      -3.654694       0.786290
C       -1.312989      -5.248017       1.512216
H       -0.673848      -5.451648       2.391544
H       -0.640914      -5.274743       0.638081
C       -2.362997      -6.352398       1.375406
H       -2.978540      -6.207927       0.471542
H       -1.897535      -7.349254       1.305891
H       -3.046383      -6.364144       2.241545
C        2.004549      -4.402093      -0.403387
H        3.075512      -4.684760      -0.429427
H        1.643063      -4.737505       0.585738
C        1.283069      -5.191369      -1.500891
H        0.197842      -5.002286      -1.446337
H        1.597614      -4.802431      -2.486722
C        1.556534      -6.695520      -1.436856
H        0.994116      -7.242912      -2.210271
H        2.628598      -6.912994      -1.589036
H        1.272285      -7.119398      -0.457299

H     0
S   5   1.00
    282.952156333090         0.0004300
     87.0622019486430        0.0005100
     26.7883698303517        0.0061600
      8.24257533241590       0.0130300
      2.53617702535874       0.0994900
S   1   1.00
      0.78036216164884       1.0000000
S   1   1.00
      0.24011143435349       1.0000000
P   1   1.00
      0.88150000000000       1.0000000
P   1   1.00
      0.17989200000000       1.0000000
****
C     0
S   6   1.00
   8846.12353391750          0.0005300
   2948.70784463917          0.0007700
    982.902614879722         0.0040500
    327.634204959907         0.0140300
    109.211401653302         0.0534500
     36.4038005511008        0.1702700
S   1   1.00
     12.1346001837003        1.0000000
S   1   1.00
      4.04486672790009       1.0000000
S   1   1.00
      1.34828890930003       1.0000000
S   1   1.00
      0.44942963643334       1.0000000
S   1   1.00
      0.14980987881111       1.0000000
P   4   1.00
     37.2940933931704        0.0039600
     11.4751056594370        0.0188900
      3.53080174136525       0.0946100
      1.08640053580469       0.3188900
P   1   1.00
      0.33427708793991       1.0000000
P   1   1.00
      0.10285448859689       1.0000000
D   1   1.00
      0.47750000000000       1.0000000
D   1   1.00
      0.11998000000000       1.0000000
****
P     0
S   7   1.00
  59538.0043013517           0.0009500
  21650.1833823097           0.0006100
   7872.79395720353          0.0037500
   2862.83416625583          0.0096300
   1041.03060591121          0.0324300
    378.556583967713         0.0995000
    137.656939624623         0.2657000
S   1   1.00
     50.0570689544083        1.0000000
S   1   1.00
     18.2025705288757        1.0000000
S   1   1.00
      6.61911655595482       1.0000000
S   1   1.00
      2.40695147489266       1.0000000
S   1   1.00
      0.87525508177915       1.0000000
S   1   1.00
      0.31827457519242       1.0000000
S   1   1.00
      0.11573620916088       1.0000000
S   1   1.00
      0.04208589424032       1.0000000
P   5   1.00
    487.996723151500         0.0021600
    162.665574383833         0.0097900
     54.2218581279445        0.0548500
     18.0739527093148        0.2177000
      6.02465090310494       0.4897800
P   1   1.00
      2.00821696770165       1.0000000
P   1   1.00
      0.66940565590055       1.0000000
P   1   1.00
      0.22313521863352       1.0000000
P   1   1.00
      0.07437840621117       1.0000000
P   1   1.00
      0.02479280207039       1.0000000
D   1   1.00
      0.35395000000000       1.0000000
D   1   1.00
      0.08909800000000       1.0000000
****
Cl     0
S   7   1.00
  77142.8171643825           0.0010600
  28051.9335143209           0.0006400
  10200.7030961167           0.0039600
   3709.34658040607          0.0098300
   1348.85330196584          0.0326900
    490.492109805761         0.0995200
    178.360767202095         0.2655500
S   1   1.00
     64.8584608007618        1.0000000
S   1   1.00
     23.5848948366407        1.0000000
S   1   1.00
      8.57632539514206       1.0000000
S   1   1.00
      3.11866378005166       1.0000000
S   1   1.00
      1.13405955638242       1.0000000
S   1   1.00
      0.41238529322997       1.0000000
S   1   1.00
      0.14995828844726       1.0000000
S   1   1.00
      0.05453028670810       1.0000000
P   5   1.00
    694.985360568515         0.0020000
    231.661786856172         0.0089500
     77.2205956187239        0.0511300
     25.7401985395746        0.2101100
      8.58006617985821       0.4973800
P   1   1.00
      2.86002205995274       1.0000000
P   1   1.00
      0.95334068665091       1.0000000
P   1   1.00
      0.31778022888364       1.0000000
P   1   1.00
      0.10592674296121       1.0000000
P   1   1.00
      0.03530891432040       1.0000000
D   1   1.00
      0.55696000000000       1.0000000
D   1   1.00
      0.15619100000000       1.0000000
****
Sn     0
S   8   1.00
 754482.145507175            0.0044300
 335325.398003189            0.0019800
 149033.510223639            0.0090500
  66237.1156549509           0.0048700
  29438.7180688671           0.0207700
  13083.8746972742           0.0329000
   5815.05542101078          0.0770100
   2584.46907600479          0.1516000
S   1   1.00
   1148.65292266880          1.0000000
S   1   1.00
    510.512410075020         1.0000000
S   1   1.00
    226.894404477787         1.0000000
S   1   1.00
    100.841957545683         1.0000000
S   1   1.00
     44.8186477980813        1.0000000
S   1   1.00
     19.9193990213695        1.0000000
S   1   1.00
      8.85306623171977       1.0000000
S   1   1.00
      3.93469610298656       1.0000000
S   1   1.00
      1.74875382354958       1.0000000
S   1   1.00
      0.77722392157759       1.0000000
S   1   1.00
      0.34543285403449       1.0000000
S   1   1.00
      0.15352571290422       1.0000000
S   1   1.00
      0.06823365017965       1.0000000
S   1   1.00
      0.01347825188734       1.0000000
P   5   1.00
  10090.6583042438           0.0027500
   4036.26332169752          0.0041800
   1614.50532867901          0.0208900
    645.802131471604         0.0713700
    258.320852588642         0.2261300
P   1   1.00
    103.328341035457         1.0000000
P   1   1.00
     41.3313364141826        1.0000000
P   1   1.00
     16.5325345656731        1.0000000
P   1   1.00
      6.61301382626922       1.0000000
P   1   1.00
      2.64520553050769       1.0000000
P   1   1.00
      1.05808221220308       1.0000000
P   1   1.00
      0.42323288488123       1.0000000
P   1   1.00
      0.16929315395249       1.0000000
P   1   1.00
      0.06771726158100       1.0000000
P   1   1.00
      0.02708690463240       1.0000000
P   1   1.00
      0.01083476185296       1.0000000
D   4   1.00
    554.302506505741         0.0043700
    201.564547820269         0.0251100
     73.2961992073707        0.1331600
     26.6531633481348        0.3890000
D   1   1.00
      9.69205939932174       1.0000000
D   1   1.00
      3.52438523611700       1.0000000
D   1   1.00
      1.28159463131527       1.0000000
D   1   1.00
      0.46603441138737       1.0000000
D   1   1.00
      0.16946705868632       1.0000000
F   1   1.00
      1.31400000000000       1.0000000
F   1   1.00
      0.19993000000000       1.0000000
****
Pt     0
S   9   1.00
2164481.60896527             0.0123200
1082240.80448263             0.0129700
 541120.402241316            0.0263700
 270560.201120658            0.0090400
 135280.100560329            0.0349800
  67640.0502801646           0.0122200
  33820.0251400823           0.0605200
  16910.0125700411           0.0649300
   8455.00628502057          0.1381900
S   1   1.00
   4227.50314251028          1.0000000
S   1   1.00
   2113.75157125514          1.0000000
S   1   1.00
   1056.87578562757          1.0000000
S   1   1.00
    528.437892813786         1.0000000
S   1   1.00
    264.218946406893         1.0000000
S   1   1.00
    132.109473203446         1.0000000
S   1   1.00
     66.0547366017232        1.0000000
S   1   1.00
     33.0273683008616        1.0000000
S   1   1.00
     16.5136841504308        1.0000000
S   1   1.00
      8.25684207521540       1.0000000
S   1   1.00
      4.12842103760770       1.0000000
S   1   1.00
      2.06421051880385       1.0000000
S   1   1.00
      1.03210525940192       1.0000000
S   1   1.00
      0.51605262970096       1.0000000
S   1   1.00
      0.25802631485048       1.0000000
S   1   1.00
      0.12901315742524       1.0000000
S   1   1.00
      0.06450657871262       1.0000000
P   7   1.00
  32357.9152575654           0.0050200
  14381.2956700291           0.0020200
   6391.68696445736          0.0180700
   2840.74976198105          0.0366200
   1262.55544976936          0.1117200
    561.135755453047         0.2558600
    249.393669090243         0.4260800
P   1   1.00
    110.841630706775         1.0000000
P   1   1.00
     49.2629469807888        1.0000000
P   1   1.00
     21.8946431025728        1.0000000
P   1   1.00
      9.73095249003235       1.0000000
P   1   1.00
      4.32486777334771       1.0000000
P   1   1.00
      1.92216345482120       1.0000000
P   1   1.00
      0.85429486880942       1.0000000
P   1   1.00
      0.37968660835974       1.0000000
P   1   1.00
      0.16874960371544       1.0000000
P   1   1.00
      0.07499982387353       1.0000000
P   1   1.00
      0.03333325505490       1.0000000
D   5   1.00
   1911.90035078584          0.0043300
    764.760140314335         0.0177800
    305.904056125734         0.0897100
    122.361622450294         0.3112300
     48.9446489801175        0.5320600
D   1   1.00
     19.5778595920470        1.0000000
D   1   1.00
      7.83114383681879       1.0000000
D   1   1.00
      3.13245753472752       1.0000000
D   1   1.00
      1.25298301389101       1.0000000
D   1   1.00
      0.50119320555640       1.0000000
D   1   1.00
      0.20047728222256       1.0000000
D   1   1.00
      0.08019091288902       1.0000000
D   1   1.00
      0.03207636515561       1.0000000
F   4   1.00
     82.2896809794193        0.0618700
     29.9235203561525        0.2482300
     10.8812801295100        0.4995600
      3.95682913800363       0.4038000
F   1   1.00
      1.43884695927405       1.0000000
F   1   1.00
      0.52321707609965       1.0000000
G   1   1.00
      2.67000000000000       1.0000000
G   1   1.00
      0.90960000000000       1.0000000
****







