%mem=15Gb
%nproc=8
#PBEPBE/gen scf=(maxcycle=1000,conver=4) NMR=GIAO Scrf=(solvent=Dichloromethane)

estrutura 15

0 1
Pt       0.111872       0.633214      -0.186675
Sn(Iso=119)      -0.055932      -1.969351      -0.244762
Cl       0.291194       3.049751      -0.274721
Cl      -1.696641      -3.136032      -1.585507
Cl       1.818832      -3.317787      -1.006228
Cl      -0.464990      -3.017058       1.906520
P       -2.309666       0.848025      -0.154694
P        2.511935       0.545082      -0.009542
C        3.286554       2.136073       0.535411
H        2.957379       2.900023      -0.182856
H        2.802012       2.408610       1.487050
C        3.168717      -0.705744       1.187463
H        2.902572      -1.699722       0.797187
H        4.270013      -0.650582       1.142194
C        3.308031       0.120898      -1.623904
H        4.387662      -0.029107      -1.447956
H        2.898466      -0.861999      -1.913231
C        2.676621      -0.534452       2.630858
H        2.999083       0.445891       3.022689
H        1.573523      -0.523308       2.644691
C        4.814459       2.142828       0.682536
H        5.130753       1.407465       1.441286
H        5.289251       1.832482      -0.264405
C        5.340403       3.526713       1.077542
H        4.910892       3.860175       2.037010
H        6.436619       3.516805       1.185946
H        5.083894       4.283082       0.317353
C        3.183123      -1.648113       3.551974
H        4.284811      -1.707728       3.541855
H        2.868084      -1.474704       4.593658
H        2.790734      -2.628574       3.239709
C        3.076303       1.160202      -2.731132
H        3.614596       2.090385      -2.477887
H        2.003399       1.428187      -2.772613
C        3.532190       0.663732      -4.105160
H        3.439514       1.460056      -4.860676
H        4.587250       0.335955      -4.088410
H        2.921051      -0.192294      -4.441445
C       -2.945818       0.089391       1.411173
H       -4.043596       0.175126       1.433580
H       -2.714803      -0.986852       1.366955
C       -2.870712       2.611148      -0.127481
H       -2.505777       3.042869      -1.073352
H       -2.284433       3.111011       0.657128
C       -3.219509       0.067529      -1.591579
H       -3.558278       0.904777      -2.225041
H       -2.444008      -0.455776      -2.166874
C       -4.367735       2.885909       0.050664
H       -4.718790       2.470825       1.010467
H       -4.946602       2.378748      -0.736762
C       -4.673696       4.386238       0.007422
H       -5.750482       4.574501       0.142967
H       -4.133884       4.929185       0.800468
H       -4.374329       4.825087      -0.958651
C       -2.326101       0.695190       2.678643
H       -1.225410       0.656483       2.595272
H       -2.590852       1.765074       2.750004
C       -2.771326      -0.029475       3.950446
H       -2.327598       0.434712       4.843625
H       -3.870333      -0.003032       4.067070
H       -2.459536      -1.087190       3.929441
C       -4.376518      -0.917510      -1.324014
H       -4.480576      -1.525277      -2.238224
H       -4.079758      -1.636416      -0.545139
C       -5.738315      -0.310147      -0.987974
H       -6.085969       0.367488      -1.785834
H       -6.492871      -1.106549      -0.877716
H       -5.729888       0.261046      -0.046608

H     0 
S   5   1.00
    282.952156333090         0.0004300        
     87.0622019486430        0.0005100        
     26.7883698303517        0.0061600        
      8.24257533241590       0.0130300        
      2.53617702535874       0.0994900        
S   1   1.00
      0.78036216164884       1.0000000        
S   1   1.00
      0.24011143435349       1.0000000        
P   1   1.00
      0.88150000000000       1.0000000        
P   1   1.00
      0.17989200000000       1.0000000        
****
C     0 
S   6   1.00
   8846.12353391750          0.0005300        
   2948.70784463917          0.0007700        
    982.902614879722         0.0040500        
    327.634204959907         0.0140300        
    109.211401653302         0.0534500        
     36.4038005511008        0.1702700        
S   1   1.00
     12.1346001837003        1.0000000        
S   1   1.00
      4.04486672790009       1.0000000        
S   1   1.00
      1.34828890930003       1.0000000        
S   1   1.00
      0.44942963643334       1.0000000        
S   1   1.00
      0.14980987881111       1.0000000        
P   4   1.00
     37.2940933931704        0.0039600        
     11.4751056594370        0.0188900        
      3.53080174136525       0.0946100        
      1.08640053580469       0.3188900        
P   1   1.00
      0.33427708793991       1.0000000        
P   1   1.00
      0.10285448859689       1.0000000        
D   1   1.00
      0.47750000000000       1.0000000        
D   1   1.00
      0.11998000000000       1.0000000        
****
P     0 
S   7   1.00
  59538.0043013517           0.0009500        
  21650.1833823097           0.0006100        
   7872.79395720353          0.0037500        
   2862.83416625583          0.0096300        
   1041.03060591121          0.0324300        
    378.556583967713         0.0995000        
    137.656939624623         0.2657000        
S   1   1.00
     50.0570689544083        1.0000000        
S   1   1.00
     18.2025705288757        1.0000000        
S   1   1.00
      6.61911655595482       1.0000000        
S   1   1.00
      2.40695147489266       1.0000000        
S   1   1.00
      0.87525508177915       1.0000000        
S   1   1.00
      0.31827457519242       1.0000000        
S   1   1.00
      0.11573620916088       1.0000000        
S   1   1.00
      0.04208589424032       1.0000000        
P   5   1.00
    487.996723151500         0.0021600        
    162.665574383833         0.0097900        
     54.2218581279445        0.0548500        
     18.0739527093148        0.2177000        
      6.02465090310494       0.4897800        
P   1   1.00
      2.00821696770165       1.0000000        
P   1   1.00
      0.66940565590055       1.0000000        
P   1   1.00
      0.22313521863352       1.0000000        
P   1   1.00
      0.07437840621117       1.0000000        
P   1   1.00
      0.02479280207039       1.0000000        
D   1   1.00
      0.35395000000000       1.0000000        
D   1   1.00
      0.08909800000000       1.0000000        
****
Cl     0 
S   7   1.00
  77142.8171643825           0.0010600        
  28051.9335143209           0.0006400        
  10200.7030961167           0.0039600        
   3709.34658040607          0.0098300        
   1348.85330196584          0.0326900        
    490.492109805761         0.0995200        
    178.360767202095         0.2655500        
S   1   1.00
     64.8584608007618        1.0000000        
S   1   1.00
     23.5848948366407        1.0000000        
S   1   1.00
      8.57632539514206       1.0000000        
S   1   1.00
      3.11866378005166       1.0000000        
S   1   1.00
      1.13405955638242       1.0000000        
S   1   1.00
      0.41238529322997       1.0000000        
S   1   1.00
      0.14995828844726       1.0000000        
S   1   1.00
      0.05453028670810       1.0000000        
P   5   1.00
    694.985360568515         0.0020000        
    231.661786856172         0.0089500        
     77.2205956187239        0.0511300        
     25.7401985395746        0.2101100        
      8.58006617985821       0.4973800        
P   1   1.00
      2.86002205995274       1.0000000        
P   1   1.00
      0.95334068665091       1.0000000        
P   1   1.00
      0.31778022888364       1.0000000        
P   1   1.00
      0.10592674296121       1.0000000        
P   1   1.00
      0.03530891432040       1.0000000        
D   1   1.00
      0.55696000000000       1.0000000        
D   1   1.00
      0.15619100000000       1.0000000        
****
Sn     0 
S   8   1.00
 754482.145507175            0.0044300        
 335325.398003189            0.0019800        
 149033.510223639            0.0090500        
  66237.1156549509           0.0048700        
  29438.7180688671           0.0207700        
  13083.8746972742           0.0329000        
   5815.05542101078          0.0770100        
   2584.46907600479          0.1516000        
S   1   1.00
   1148.65292266880          1.0000000        
S   1   1.00
    510.512410075020         1.0000000        
S   1   1.00
    226.894404477787         1.0000000        
S   1   1.00
    100.841957545683         1.0000000        
S   1   1.00
     44.8186477980813        1.0000000        
S   1   1.00
     19.9193990213695        1.0000000        
S   1   1.00
      8.85306623171977       1.0000000        
S   1   1.00
      3.93469610298656       1.0000000        
S   1   1.00
      1.74875382354958       1.0000000        
S   1   1.00
      0.77722392157759       1.0000000        
S   1   1.00
      0.34543285403449       1.0000000        
S   1   1.00
      0.15352571290422       1.0000000        
S   1   1.00
      0.06823365017965       1.0000000        
S   1   1.00
      0.01347825188734       1.0000000        
P   5   1.00
  10090.6583042438           0.0027500        
   4036.26332169752          0.0041800        
   1614.50532867901          0.0208900        
    645.802131471604         0.0713700        
    258.320852588642         0.2261300        
P   1   1.00
    103.328341035457         1.0000000        
P   1   1.00
     41.3313364141826        1.0000000        
P   1   1.00
     16.5325345656731        1.0000000        
P   1   1.00
      6.61301382626922       1.0000000        
P   1   1.00
      2.64520553050769       1.0000000        
P   1   1.00
      1.05808221220308       1.0000000        
P   1   1.00
      0.42323288488123       1.0000000        
P   1   1.00
      0.16929315395249       1.0000000        
P   1   1.00
      0.06771726158100       1.0000000        
P   1   1.00
      0.02708690463240       1.0000000        
P   1   1.00
      0.01083476185296       1.0000000        
D   4   1.00
    554.302506505741         0.0043700        
    201.564547820269         0.0251100        
     73.2961992073707        0.1331600        
     26.6531633481348        0.3890000        
D   1   1.00
      9.69205939932174       1.0000000        
D   1   1.00
      3.52438523611700       1.0000000        
D   1   1.00
      1.28159463131527       1.0000000        
D   1   1.00
      0.46603441138737       1.0000000        
D   1   1.00
      0.16946705868632       1.0000000        
F   1   1.00
      1.31400000000000       1.0000000        
F   1   1.00
      0.19993000000000       1.0000000        
****
Pt     0 
S   9   1.00
 2164481.60896527            0.0123200        
 1082240.80448263            0.0129700        
 541120.402241316            0.0263700        
 270560.201120658            0.0090400        
 135280.100560329            0.0349800        
  67640.0502801646           0.0122200        
  33820.0251400823           0.0605200        
  16910.0125700411           0.0649300        
   8455.00628502057          0.1381900        
S   1   1.00
   4227.50314251028          1.0000000        
S   1   1.00
   2113.75157125514          1.0000000        
S   1   1.00
   1056.87578562757          1.0000000        
S   1   1.00
    528.437892813786         1.0000000        
S   1   1.00
    264.218946406893         1.0000000        
S   1   1.00
    132.109473203446         1.0000000        
S   1   1.00
     66.0547366017232        1.0000000        
S   1   1.00
     33.0273683008616        1.0000000        
S   1   1.00
     16.5136841504308        1.0000000        
S   1   1.00
      8.25684207521540       1.0000000        
S   1   1.00
      4.12842103760770       1.0000000        
S   1   1.00
      2.06421051880385       1.0000000        
S   1   1.00
      1.03210525940192       1.0000000        
S   1   1.00
      0.51605262970096       1.0000000        
S   1   1.00
      0.25802631485048       1.0000000        
S   1   1.00
      0.12901315742524       1.0000000        
S   1   1.00
      0.06450657871262       1.0000000        
P   7   1.00
  32357.9152575654           0.0050200        
  14381.2956700291           0.0020200        
   6391.68696445736          0.0180700        
   2840.74976198105          0.0366200        
   1262.55544976936          0.1117200        
    561.135755453047         0.2558600        
    249.393669090243         0.4260800        
P   1   1.00
    110.841630706775         1.0000000        
P   1   1.00
     49.2629469807888        1.0000000        
P   1   1.00
     21.8946431025728        1.0000000        
P   1   1.00
      9.73095249003235       1.0000000        
P   1   1.00
      4.32486777334771       1.0000000        
P   1   1.00
      1.92216345482120       1.0000000        
P   1   1.00
      0.85429486880942       1.0000000        
P   1   1.00
      0.37968660835974       1.0000000        
P   1   1.00
      0.16874960371544       1.0000000        
P   1   1.00
      0.07499982387353       1.0000000        
P   1   1.00
      0.03333325505490       1.0000000        
D   5   1.00
   1911.90035078584          0.0043300        
    764.760140314335         0.0177800        
    305.904056125734         0.0897100        
    122.361622450294         0.3112300        
     48.9446489801175        0.5320600        
D   1   1.00
     19.5778595920470        1.0000000        
D   1   1.00
      7.83114383681879       1.0000000        
D   1   1.00
      3.13245753472752       1.0000000        
D   1   1.00
      1.25298301389101       1.0000000        
D   1   1.00
      0.50119320555640       1.0000000        
D   1   1.00
      0.20047728222256       1.0000000        
D   1   1.00
      0.08019091288902       1.0000000        
D   1   1.00
      0.03207636515561       1.0000000        
F   4   1.00
     82.2896809794193        0.0618700        
     29.9235203561525        0.2482300        
     10.8812801295100        0.4995600        
      3.95682913800363       0.4038000        
F   1   1.00
      1.43884695927405       1.0000000        
F   1   1.00
      0.52321707609965       1.0000000        
G   1   1.00
      2.67000000000000       1.0000000        
G   1   1.00
      0.90960000000000       1.0000000        
****



