%mem=7Gb
%nproc=4
#PBEPBE/gen scf=(maxcycle=500,conver=3) NMR=GIAO Scrf=(solvent=Dichloromethane)

estrutura 83

0 1
Pt      -0.241031       0.360606       0.092089
C        0.085090       2.409471       0.225840
C        0.090281       3.293021      -0.872695
C        0.253534       2.990819       1.500359
C        0.222023       4.677954      -0.710556
H       -0.006103       2.904129      -1.888575
C        0.390459       4.374148       1.671824
H        0.273265       2.353866       2.389192
C        0.370052       5.229737       0.565609
H        0.215543       5.327131      -1.591659
H        0.513476       4.783773       2.679214
H        0.475502       6.310352       0.696188
P       -2.686874       0.957210      -0.105693
P       -0.449673      -2.077190       0.188755
C       -3.091700       1.440841      -1.847497
C       -4.401480       1.808718      -2.211627
C       -2.103914       1.391392      -2.843254
C       -4.704735       2.141518      -3.533363
H       -5.194918       1.827731      -1.461533
C       -2.409755       1.719697      -4.169108
H       -1.090384       1.082555      -2.580603
C       -3.708172       2.100262      -4.515701
H       -5.725352       2.428583      -3.798451
H       -1.628141       1.674232      -4.931492
H       -3.947638       2.357475      -5.550532
C       -3.102758       2.428991       0.938054
C       -2.903946       2.327631       2.327830
C       -3.577131       3.642547       0.416881
C       -3.216569       3.391065       3.176829
H       -2.490401       1.413088       2.758937
C       -3.871115       4.715376       1.266526
H       -3.713554       3.766544      -0.657766
C       -3.704162       4.590558       2.647649
H       -3.064072       3.286024       4.253848
H       -4.234452       5.653801       0.839988
H       -3.941267       5.427607       3.309044
C       -4.117127      -0.190533       0.238922
C       -4.359906      -1.237782      -0.669330
C       -4.963814      -0.063035       1.353339
C       -5.415917      -2.129426      -0.468037
H       -3.729365      -1.356853      -1.551772
C       -6.018635      -0.960043       1.555055
H       -4.819754       0.745771       2.069651
C       -6.249205      -1.996380       0.647179
H       -5.585788      -2.932205      -1.189664
H       -6.666712      -0.837995       2.426737
H       -7.076090      -2.693446       0.803858
C        1.063090      -3.157403       0.287473
C        1.428209      -4.052333      -0.729693
C        1.841919      -3.109047       1.457077
C        2.539710      -4.888727      -0.574250
H        0.845100      -4.110911      -1.649338
C        2.951329      -3.943037       1.609937
H        1.576566      -2.426329       2.266281
C        3.301744      -4.840097       0.595138
H        2.807136      -5.581770      -1.375918
H        3.541392      -3.892116       2.528524
H        4.167411      -5.496460       0.715917
C       -1.329841      -2.811158      -1.266890
C       -2.191404      -3.918191      -1.193549
C       -1.083750      -2.229043      -2.522944
C       -2.789942      -4.429346      -2.349565
H       -2.414424      -4.384520      -0.233562
C       -1.678570      -2.743183      -3.679196
H       -0.422208      -1.363162      -2.594709
C       -2.535691      -3.845245      -3.594783
H       -3.461725      -5.288367      -2.273507
H       -1.475780      -2.276415      -4.646317
H       -3.006327      -4.245925      -4.496126
C       -1.330532      -2.685298       1.704826
C       -1.349897      -4.049662       2.055799
C       -1.938389      -1.763572       2.569590
C       -1.991614      -4.475814       3.220730
H       -0.843970      -4.786643       1.429031
C       -2.572790      -2.187828       3.742611
H       -1.898466      -0.702106       2.323805
C       -2.607007      -3.545775       4.067038
H       -2.001227      -5.538827       3.474470
H       -3.037581      -1.452193       4.403723
H       -3.102168      -3.880418       4.982190
Sn       2.421936       0.416462      -0.054048
C        3.365145       0.176101       1.923473
C        4.763205       0.184487       2.087336
C        2.573711       0.059801       3.080668
C        5.348242       0.060823       3.354696
H        5.419530       0.297702       1.219021
C        3.150067      -0.057909       4.352272
H        1.482267       0.060846       2.991786
C        4.542107      -0.062390       4.491547
H        6.437708       0.065088       3.454172
H        2.510897      -0.145647       5.235855
H        4.996726      -0.156223       5.481720
C        3.338469      -1.000520      -1.478067
C        4.518566      -1.705600      -1.183775
C        2.811818      -1.125176      -2.777112
C        5.152707      -2.498672      -2.148789
H        4.958785      -1.647866      -0.184409
C        3.437537      -1.918671      -3.747342
H        1.894501      -0.593670      -3.051496
C        4.614476      -2.607211      -3.435229
H        6.070526      -3.036374      -1.892717
H        3.006285      -1.996610      -4.749825
H        5.108601      -3.225321      -4.189936
C        3.452761       2.234457      -0.772375
C        3.630588       2.473557      -2.147365
C        4.006859       3.163471       0.126608
C        4.325057       3.598601      -2.609017
H        3.232237       1.768742      -2.883959
C        4.704507       4.290760      -0.326312
H        3.897495       3.013085       1.204597
C        4.865225       4.512729      -1.697618
H        4.448755       3.759349      -3.684225
H        5.125306       4.996845       0.396029
H        5.410581       5.390828      -2.054255

H     0
S   5   1.00
    282.952156333090         0.0004300
     87.0622019486430        0.0005100
     26.7883698303517        0.0061600
      8.24257533241590       0.0130300
      2.53617702535874       0.0994900
S   1   1.00
      0.78036216164884       1.0000000
S   1   1.00
      0.24011143435349       1.0000000
P   1   1.00
      0.88150000000000       1.0000000
P   1   1.00
      0.17989200000000       1.0000000
****
C     0
S   6   1.00
   8846.12353391750          0.0005300
   2948.70784463917          0.0007700
    982.902614879722         0.0040500
    327.634204959907         0.0140300
    109.211401653302         0.0534500
     36.4038005511008        0.1702700
S   1   1.00
     12.1346001837003        1.0000000
S   1   1.00
      4.04486672790009       1.0000000
S   1   1.00
      1.34828890930003       1.0000000
S   1   1.00
      0.44942963643334       1.0000000
S   1   1.00
      0.14980987881111       1.0000000
P   4   1.00
     37.2940933931704        0.0039600
     11.4751056594370        0.0188900
      3.53080174136525       0.0946100
      1.08640053580469       0.3188900
P   1   1.00
      0.33427708793991       1.0000000
P   1   1.00
      0.10285448859689       1.0000000
D   1   1.00
      0.47750000000000       1.0000000
D   1   1.00
      0.11998000000000       1.0000000
****
P     0
S   7   1.00
  59538.0043013517           0.0009500
  21650.1833823097           0.0006100
   7872.79395720353          0.0037500
   2862.83416625583          0.0096300
   1041.03060591121          0.0324300
    378.556583967713         0.0995000
    137.656939624623         0.2657000
S   1   1.00
     50.0570689544083        1.0000000
S   1   1.00
     18.2025705288757        1.0000000
S   1   1.00
      6.61911655595482       1.0000000
S   1   1.00
      2.40695147489266       1.0000000
S   1   1.00
      0.87525508177915       1.0000000
S   1   1.00
      0.31827457519242       1.0000000
S   1   1.00
      0.11573620916088       1.0000000
S   1   1.00
      0.04208589424032       1.0000000
P   5   1.00
    487.996723151500         0.0021600
    162.665574383833         0.0097900
     54.2218581279445        0.0548500
     18.0739527093148        0.2177000
      6.02465090310494       0.4897800
P   1   1.00
      2.00821696770165       1.0000000
P   1   1.00
      0.66940565590055       1.0000000
P   1   1.00
      0.22313521863352       1.0000000
P   1   1.00
      0.07437840621117       1.0000000
P   1   1.00
      0.02479280207039       1.0000000
D   1   1.00
      0.35395000000000       1.0000000
D   1   1.00
      0.08909800000000       1.0000000
****
Sn     0
S   8   1.00
 754482.145507175            0.0044300
 335325.398003189            0.0019800
 149033.510223639            0.0090500
  66237.1156549509           0.0048700
  29438.7180688671           0.0207700
  13083.8746972742           0.0329000
   5815.05542101078          0.0770100
   2584.46907600479          0.1516000
S   1   1.00
   1148.65292266880          1.0000000
S   1   1.00
    510.512410075020         1.0000000
S   1   1.00
    226.894404477787         1.0000000
S   1   1.00
    100.841957545683         1.0000000
S   1   1.00
     44.8186477980813        1.0000000
S   1   1.00
     19.9193990213695        1.0000000
S   1   1.00
      8.85306623171977       1.0000000
S   1   1.00
      3.93469610298656       1.0000000
S   1   1.00
      1.74875382354958       1.0000000
S   1   1.00
      0.77722392157759       1.0000000
S   1   1.00
      0.34543285403449       1.0000000
S   1   1.00
      0.15352571290422       1.0000000
S   1   1.00
      0.06823365017965       1.0000000
S   1   1.00
      0.01347825188734       1.0000000
P   5   1.00
  10090.6583042438           0.0027500
   4036.26332169752          0.0041800
   1614.50532867901          0.0208900
    645.802131471604         0.0713700
    258.320852588642         0.2261300
P   1   1.00
    103.328341035457         1.0000000
P   1   1.00
     41.3313364141826        1.0000000
P   1   1.00
     16.5325345656731        1.0000000
P   1   1.00
      6.61301382626922       1.0000000
P   1   1.00
      2.64520553050769       1.0000000
P   1   1.00
      1.05808221220308       1.0000000
P   1   1.00
      0.42323288488123       1.0000000
P   1   1.00
      0.16929315395249       1.0000000
P   1   1.00
      0.06771726158100       1.0000000
P   1   1.00
      0.02708690463240       1.0000000
P   1   1.00
      0.01083476185296       1.0000000
D   4   1.00
    554.302506505741         0.0043700
    201.564547820269         0.0251100
     73.2961992073707        0.1331600
     26.6531633481348        0.3890000
D   1   1.00
      9.69205939932174       1.0000000
D   1   1.00
      3.52438523611700       1.0000000
D   1   1.00
      1.28159463131527       1.0000000
D   1   1.00
      0.46603441138737       1.0000000
D   1   1.00
      0.16946705868632       1.0000000
F   1   1.00
      1.31400000000000       1.0000000
F   1   1.00
      0.19993000000000       1.0000000
****
Pt     0
S   9   1.00
2164481.60896527             0.0123200
1082240.80448263             0.0129700
 541120.402241316            0.0263700
 270560.201120658            0.0090400
 135280.100560329            0.0349800
  67640.0502801646           0.0122200
  33820.0251400823           0.0605200
  16910.0125700411           0.0649300
   8455.00628502057          0.1381900
S   1   1.00
   4227.50314251028          1.0000000
S   1   1.00
   2113.75157125514          1.0000000
S   1   1.00
   1056.87578562757          1.0000000
S   1   1.00
    528.437892813786         1.0000000
S   1   1.00
    264.218946406893         1.0000000
S   1   1.00
    132.109473203446         1.0000000
S   1   1.00
     66.0547366017232        1.0000000
S   1   1.00
     33.0273683008616        1.0000000
S   1   1.00
     16.5136841504308        1.0000000
S   1   1.00
      8.25684207521540       1.0000000
S   1   1.00
      4.12842103760770       1.0000000
S   1   1.00
      2.06421051880385       1.0000000
S   1   1.00
      1.03210525940192       1.0000000
S   1   1.00
      0.51605262970096       1.0000000
S   1   1.00
      0.25802631485048       1.0000000
S   1   1.00
      0.12901315742524       1.0000000
S   1   1.00
      0.06450657871262       1.0000000
P   7   1.00
  32357.9152575654           0.0050200
  14381.2956700291           0.0020200
   6391.68696445736          0.0180700
   2840.74976198105          0.0366200
   1262.55544976936          0.1117200
    561.135755453047         0.2558600
    249.393669090243         0.4260800
P   1   1.00
    110.841630706775         1.0000000
P   1   1.00
     49.2629469807888        1.0000000
P   1   1.00
     21.8946431025728        1.0000000
P   1   1.00
      9.73095249003235       1.0000000
P   1   1.00
      4.32486777334771       1.0000000
P   1   1.00
      1.92216345482120       1.0000000
P   1   1.00
      0.85429486880942       1.0000000
P   1   1.00
      0.37968660835974       1.0000000
P   1   1.00
      0.16874960371544       1.0000000
P   1   1.00
      0.07499982387353       1.0000000
P   1   1.00
      0.03333325505490       1.0000000
D   5   1.00
   1911.90035078584          0.0043300
    764.760140314335         0.0177800
    305.904056125734         0.0897100
    122.361622450294         0.3112300
     48.9446489801175        0.5320600
D   1   1.00
     19.5778595920470        1.0000000
D   1   1.00
      7.83114383681879       1.0000000
D   1   1.00
      3.13245753472752       1.0000000
D   1   1.00
      1.25298301389101       1.0000000
D   1   1.00
      0.50119320555640       1.0000000
D   1   1.00
      0.20047728222256       1.0000000
D   1   1.00
      0.08019091288902       1.0000000
D   1   1.00
      0.03207636515561       1.0000000
F   4   1.00
     82.2896809794193        0.0618700
     29.9235203561525        0.2482300
     10.8812801295100        0.4995600
      3.95682913800363       0.4038000
F   1   1.00
      1.43884695927405       1.0000000
F   1   1.00
      0.52321707609965       1.0000000
G   1   1.00
      2.67000000000000       1.0000000
G   1   1.00
      0.90960000000000       1.0000000
****



