%mem=7Gb
%nproc=4
#PBEPBE/gen scf=(maxcycle=500,conver=4) NMR=GIAO Scrf=(solvent=Dichloromethane)

estrutura 68

0 1
Sn       0.050832       1.108906       0.167220
Cl      -0.034943       3.060791      -1.226209
Cl      -0.138815       2.058730       2.364959
C       -3.049683       1.530928      -0.292635
O       -3.574794       2.538499      -0.395788
C        3.215636       1.148531      -0.484776
O        3.864074       2.048412      -0.741387
Pt       2.220869      -0.364010      -0.079347
Pt      -2.284121      -0.136067      -0.121521
Cl      -1.428051      -2.482121       0.085124
Cl      -3.723713      -2.579832      -0.291701
Cl       4.236014      -1.710864      -0.178024
Cl       1.035512      -2.417956       0.485181

C     0
S   6   1.00
   8846.12353391750          0.0005300
   2948.70784463917          0.0007700
    982.902614879722         0.0040500
    327.634204959907         0.0140300
    109.211401653302         0.0534500
     36.4038005511008        0.1702700
S   1   1.00
     12.1346001837003        1.0000000
S   1   1.00
      4.04486672790009       1.0000000
S   1   1.00
      1.34828890930003       1.0000000
S   1   1.00
      0.44942963643334       1.0000000
S   1   1.00
      0.14980987881111       1.0000000
P   4   1.00
     37.2940933931704        0.0039600
     11.4751056594370        0.0188900
      3.53080174136525       0.0946100
      1.08640053580469       0.3188900
P   1   1.00
      0.33427708793991       1.0000000
P   1   1.00
      0.10285448859689       1.0000000
D   1   1.00
      0.47750000000000       1.0000000
D   1   1.00
      0.11998000000000       1.0000000
****
O     0
S   6   1.00
  16178.1182314232           0.0006000
   5392.70607714106          0.0007800
   1797.56869238035          0.0041000
    599.189564126785         0.0138800
    199.729854708928         0.0527700
     66.5766182363094        0.1692400
S   1   1.00
     22.1922060787698        1.0000000
S   1   1.00
      7.39740202625660       1.0000000
S   1   1.00
      2.46580067541887       1.0000000
S   1   1.00
      0.82193355847296       1.0000000
S   1   1.00
      0.27397785282432       1.0000000
P   4   1.00
     73.8543986696091        0.0040200
     22.7244303598797        0.0201300
      6.99213241842453       0.1047000
      2.15142535951524       0.3360500
P   1   1.00
      0.66197703369700       1.0000000
P   1   1.00
      0.20368524113754       1.0000000
D   1   1.00
      0.92880000000000       1.0000000
D   1   1.00
      0.22975000000000       1.0000000
****
Cl     0
S   7   1.00
  77142.8171643825           0.0010600
  28051.9335143209           0.0006400
  10200.7030961167           0.0039600
   3709.34658040607          0.0098300
   1348.85330196584          0.0326900
    490.492109805761         0.0995200
    178.360767202095         0.2655500
S   1   1.00
     64.8584608007618        1.0000000
S   1   1.00
     23.5848948366407        1.0000000
S   1   1.00
      8.57632539514206       1.0000000
S   1   1.00
      3.11866378005166       1.0000000
S   1   1.00
      1.13405955638242       1.0000000
S   1   1.00
      0.41238529322997       1.0000000
S   1   1.00
      0.14995828844726       1.0000000
S   1   1.00
      0.05453028670810       1.0000000
P   5   1.00
    694.985360568515         0.0020000
    231.661786856172         0.0089500
     77.2205956187239        0.0511300
     25.7401985395746        0.2101100
      8.58006617985821       0.4973800
P   1   1.00
      2.86002205995274       1.0000000
P   1   1.00
      0.95334068665091       1.0000000
P   1   1.00
      0.31778022888364       1.0000000
P   1   1.00
      0.10592674296121       1.0000000
P   1   1.00
      0.03530891432040       1.0000000
D   1   1.00
      0.55696000000000       1.0000000
D   1   1.00
      0.15619100000000       1.0000000
****
Sn     0
S   8   1.00
 754482.145507175            0.0044300
 335325.398003189            0.0019800
 149033.510223639            0.0090500
  66237.1156549509           0.0048700
  29438.7180688671           0.0207700
  13083.8746972742           0.0329000
   5815.05542101078          0.0770100
   2584.46907600479          0.1516000
S   1   1.00
   1148.65292266880          1.0000000
S   1   1.00
    510.512410075020         1.0000000
S   1   1.00
    226.894404477787         1.0000000
S   1   1.00
    100.841957545683         1.0000000
S   1   1.00
     44.8186477980813        1.0000000
S   1   1.00
     19.9193990213695        1.0000000
S   1   1.00
      8.85306623171977       1.0000000
S   1   1.00
      3.93469610298656       1.0000000
S   1   1.00
      1.74875382354958       1.0000000
S   1   1.00
      0.77722392157759       1.0000000
S   1   1.00
      0.34543285403449       1.0000000
S   1   1.00
      0.15352571290422       1.0000000
S   1   1.00
      0.06823365017965       1.0000000
S   1   1.00
      0.01347825188734       1.0000000
P   5   1.00
  10090.6583042438           0.0027500
   4036.26332169752          0.0041800
   1614.50532867901          0.0208900
    645.802131471604         0.0713700
    258.320852588642         0.2261300
P   1   1.00
    103.328341035457         1.0000000
P   1   1.00
     41.3313364141826        1.0000000
P   1   1.00
     16.5325345656731        1.0000000
P   1   1.00
      6.61301382626922       1.0000000
P   1   1.00
      2.64520553050769       1.0000000
P   1   1.00
      1.05808221220308       1.0000000
P   1   1.00
      0.42323288488123       1.0000000
P   1   1.00
      0.16929315395249       1.0000000
P   1   1.00
      0.06771726158100       1.0000000
P   1   1.00
      0.02708690463240       1.0000000
P   1   1.00
      0.01083476185296       1.0000000
D   4   1.00
    554.302506505741         0.0043700
    201.564547820269         0.0251100
     73.2961992073707        0.1331600
     26.6531633481348        0.3890000
D   1   1.00
      9.69205939932174       1.0000000
D   1   1.00
      3.52438523611700       1.0000000
D   1   1.00
      1.28159463131527       1.0000000
D   1   1.00
      0.46603441138737       1.0000000
D   1   1.00
      0.16946705868632       1.0000000
F   1   1.00
      1.31400000000000       1.0000000
F   1   1.00
      0.19993000000000       1.0000000
****
Pt     0
S   9   1.00
2164481.60896527             0.0123200
1082240.80448263             0.0129700
 541120.402241316            0.0263700
 270560.201120658            0.0090400
 135280.100560329            0.0349800
  67640.0502801646           0.0122200
  33820.0251400823           0.0605200
  16910.0125700411           0.0649300
   8455.00628502057          0.1381900
S   1   1.00
   4227.50314251028          1.0000000
S   1   1.00
   2113.75157125514          1.0000000
S   1   1.00
   1056.87578562757          1.0000000
S   1   1.00
    528.437892813786         1.0000000
S   1   1.00
    264.218946406893         1.0000000
S   1   1.00
    132.109473203446         1.0000000
S   1   1.00
     66.0547366017232        1.0000000
S   1   1.00
     33.0273683008616        1.0000000
S   1   1.00
     16.5136841504308        1.0000000
S   1   1.00
      8.25684207521540       1.0000000
S   1   1.00
      4.12842103760770       1.0000000
S   1   1.00
      2.06421051880385       1.0000000
S   1   1.00
      1.03210525940192       1.0000000
S   1   1.00
      0.51605262970096       1.0000000
S   1   1.00
      0.25802631485048       1.0000000
S   1   1.00
      0.12901315742524       1.0000000
S   1   1.00
      0.06450657871262       1.0000000
P   7   1.00
  32357.9152575654           0.0050200
  14381.2956700291           0.0020200
   6391.68696445736          0.0180700
   2840.74976198105          0.0366200
   1262.55544976936          0.1117200
    561.135755453047         0.2558600
    249.393669090243         0.4260800
P   1   1.00
    110.841630706775         1.0000000
P   1   1.00
     49.2629469807888        1.0000000
P   1   1.00
     21.8946431025728        1.0000000
P   1   1.00
      9.73095249003235       1.0000000
P   1   1.00
      4.32486777334771       1.0000000
P   1   1.00
      1.92216345482120       1.0000000
P   1   1.00
      0.85429486880942       1.0000000
P   1   1.00
      0.37968660835974       1.0000000
P   1   1.00
      0.16874960371544       1.0000000
P   1   1.00
      0.07499982387353       1.0000000
P   1   1.00
      0.03333325505490       1.0000000
D   5   1.00
   1911.90035078584          0.0043300
    764.760140314335         0.0177800
    305.904056125734         0.0897100
    122.361622450294         0.3112300
     48.9446489801175        0.5320600
D   1   1.00
     19.5778595920470        1.0000000
D   1   1.00
      7.83114383681879       1.0000000
D   1   1.00
      3.13245753472752       1.0000000
D   1   1.00
      1.25298301389101       1.0000000
D   1   1.00
      0.50119320555640       1.0000000
D   1   1.00
      0.20047728222256       1.0000000
D   1   1.00
      0.08019091288902       1.0000000
D   1   1.00
      0.03207636515561       1.0000000
F   4   1.00
     82.2896809794193        0.0618700
     29.9235203561525        0.2482300
     10.8812801295100        0.4995600
      3.95682913800363       0.4038000
F   1   1.00
      1.43884695927405       1.0000000
F   1   1.00
      0.52321707609965       1.0000000
G   1   1.00
      2.67000000000000       1.0000000
G   1   1.00
      0.90960000000000       1.0000000
****










