%mem=30Gb
%nproc=24
#PBEPBE/gen scf=(maxcycle=500,conver=4) NMR=GIAO Scrf=(solvent=Dichloromethane)

estrutura 18

0 1
Pt       0.014103       0.037681      -0.095845
Sn      -0.042854      -2.648993      -0.195324
Sn       0.145217       2.698483      -0.304024
Cl       1.703161      -3.942946      -1.277017
Cl      -1.819892      -3.733611      -1.434518
Cl      -0.148625      -3.797960       1.934120
Cl      -1.582496       3.934280      -1.469312
Cl       0.299342       4.080313       1.676804
Cl       2.017628       3.567555      -1.576199
P        2.347303      -0.016560       0.158333
O        2.676083      -1.397105       0.934420
O        2.817698       1.233196       1.046467
O        3.343998       0.071017      -1.106167
C        3.844700      -1.749589       1.749461
H        4.653617      -1.038759       1.513376
C        4.119077       1.745366       1.525633
H        4.445445       1.048933       2.314568
C        3.445583      -0.890625      -2.207008
H        3.310228      -1.892926      -1.778219
C        5.172974       1.824545       0.429574
H        6.054812       2.344564       0.833424
H        5.489531       0.834393       0.078827
H        4.791070       2.393900      -0.429283
C        3.820065       3.097938       2.147838
H        3.515745       3.819442       1.376839
H        3.011900       3.023069       2.888929
H        4.723664       3.475616       2.648726
C        3.437760      -1.627630       3.210516
H        2.620041      -2.330539       3.431572
H        4.291469      -1.861490       3.864714
H        3.089754      -0.610291       3.443006
C        4.280562      -3.150002       1.355230
H        5.140910      -3.452903       1.971120
H        3.461973      -3.868281       1.516151
H        4.575345      -3.193853       0.298051
C        4.852666      -0.753750      -2.762423
H        5.007634      -1.486015      -3.567538
H        5.014104       0.255476      -3.173746
H        5.606433      -0.937163      -1.980517
C        2.360825      -0.627936      -3.241197
H        1.354915      -0.665066      -2.793298
H        2.493113       0.358496      -3.711463
H        2.408218      -1.401544      -4.022446
P       -2.335676       0.036575       0.106271
O       -3.073558      -0.385416      -1.257490
O       -3.024312       1.438466       0.509526
O       -2.698133      -1.049132       1.247515
C       -3.806772       1.887637       1.665868
H       -4.304655       1.009801       2.096857
C       -4.311541       0.116347      -1.864954
H       -4.914292       0.581849      -1.069287
C       -4.001588      -1.577973       1.685234
H       -4.784531      -0.884079       1.339123
C       -2.890193       2.506591       2.706774
H       -2.113815       1.797563       3.031384
H       -2.394878       3.407489       2.317818
H       -3.483050       2.789104       3.591211
C       -4.852273       2.852273       1.130013
H       -5.548452       2.347679       0.444337
H       -5.436000       3.268834       1.966270
H       -4.367822       3.681141       0.591795
C       -3.946111       1.159226      -2.907106
H       -3.425886       2.013860      -2.450532
H       -3.290869       0.718252      -3.676307
H       -4.857684       1.530879      -3.404008
C       -5.051714      -1.079186      -2.440955
H       -5.979618      -0.738868      -2.926224
H       -4.433107      -1.591327      -3.195705
H       -5.319803      -1.804316      -1.659927
C       -3.965787      -1.617554       3.205561
H       -4.916107      -2.025654       3.589007
H       -3.146752      -2.268915       3.543437
H       -3.819093      -0.618710       3.639237
C       -4.231791      -2.945857       1.066176
H       -3.472313      -3.662746       1.410609
H       -5.225766      -3.314955       1.365248
H       -4.185818      -2.902653      -0.028372

H     0 
S   5   1.00
    282.952156333090         0.0004300        
     87.0622019486430        0.0005100        
     26.7883698303517        0.0061600        
      8.24257533241590       0.0130300        
      2.53617702535874       0.0994900        
S   1   1.00
      0.78036216164884       1.0000000        
S   1   1.00
      0.24011143435349       1.0000000        
P   1   1.00
      0.88150000000000       1.0000000        
P   1   1.00
      0.17989200000000       1.0000000        
****
C     0 
S   6   1.00
   8846.12353391750          0.0005300        
   2948.70784463917          0.0007700        
    982.902614879722         0.0040500        
    327.634204959907         0.0140300        
    109.211401653302         0.0534500        
     36.4038005511008        0.1702700        
S   1   1.00
     12.1346001837003        1.0000000        
S   1   1.00
      4.04486672790009       1.0000000        
S   1   1.00
      1.34828890930003       1.0000000        
S   1   1.00
      0.44942963643334       1.0000000        
S   1   1.00
      0.14980987881111       1.0000000        
P   4   1.00
     37.2940933931704        0.0039600        
     11.4751056594370        0.0188900        
      3.53080174136525       0.0946100        
      1.08640053580469       0.3188900        
P   1   1.00
      0.33427708793991       1.0000000        
P   1   1.00
      0.10285448859689       1.0000000        
D   1   1.00
      0.47750000000000       1.0000000        
D   1   1.00
      0.11998000000000       1.0000000        
****
O     0 
S   6   1.00
  16178.1182314232           0.0006000        
   5392.70607714106          0.0007800        
   1797.56869238035          0.0041000        
    599.189564126785         0.0138800        
    199.729854708928         0.0527700        
     66.5766182363094        0.1692400        
S   1   1.00
     22.1922060787698        1.0000000        
S   1   1.00
      7.39740202625660       1.0000000        
S   1   1.00
      2.46580067541887       1.0000000        
S   1   1.00
      0.82193355847296       1.0000000        
S   1   1.00
      0.27397785282432       1.0000000        
P   4   1.00
     73.8543986696091        0.0040200        
     22.7244303598797        0.0201300        
      6.99213241842453       0.1047000        
      2.15142535951524       0.3360500        
P   1   1.00
      0.66197703369700       1.0000000        
P   1   1.00
      0.20368524113754       1.0000000        
D   1   1.00
      0.92880000000000       1.0000000        
D   1   1.00
      0.22975000000000       1.0000000        
****
P     0 
S   7   1.00
  59538.0043013517           0.0009500        
  21650.1833823097           0.0006100        
   7872.79395720353          0.0037500        
   2862.83416625583          0.0096300        
   1041.03060591121          0.0324300        
    378.556583967713         0.0995000        
    137.656939624623         0.2657000        
S   1   1.00
     50.0570689544083        1.0000000        
S   1   1.00
     18.2025705288757        1.0000000        
S   1   1.00
      6.61911655595482       1.0000000        
S   1   1.00
      2.40695147489266       1.0000000        
S   1   1.00
      0.87525508177915       1.0000000        
S   1   1.00
      0.31827457519242       1.0000000        
S   1   1.00
      0.11573620916088       1.0000000        
S   1   1.00
      0.04208589424032       1.0000000        
P   5   1.00
    487.996723151500         0.0021600        
    162.665574383833         0.0097900        
     54.2218581279445        0.0548500        
     18.0739527093148        0.2177000        
      6.02465090310494       0.4897800        
P   1   1.00
      2.00821696770165       1.0000000        
P   1   1.00
      0.66940565590055       1.0000000        
P   1   1.00
      0.22313521863352       1.0000000        
P   1   1.00
      0.07437840621117       1.0000000        
P   1   1.00
      0.02479280207039       1.0000000        
D   1   1.00
      0.35395000000000       1.0000000        
D   1   1.00
      0.08909800000000       1.0000000        
****
Cl     0 
S   7   1.00
  77142.8171643825           0.0010600        
  28051.9335143209           0.0006400        
  10200.7030961167           0.0039600        
   3709.34658040607          0.0098300        
   1348.85330196584          0.0326900        
    490.492109805761         0.0995200        
    178.360767202095         0.2655500        
S   1   1.00
     64.8584608007618        1.0000000        
S   1   1.00
     23.5848948366407        1.0000000        
S   1   1.00
      8.57632539514206       1.0000000        
S   1   1.00
      3.11866378005166       1.0000000        
S   1   1.00
      1.13405955638242       1.0000000        
S   1   1.00
      0.41238529322997       1.0000000        
S   1   1.00
      0.14995828844726       1.0000000        
S   1   1.00
      0.05453028670810       1.0000000        
P   5   1.00
    694.985360568515         0.0020000        
    231.661786856172         0.0089500        
     77.2205956187239        0.0511300        
     25.7401985395746        0.2101100        
      8.58006617985821       0.4973800        
P   1   1.00
      2.86002205995274       1.0000000        
P   1   1.00
      0.95334068665091       1.0000000        
P   1   1.00
      0.31778022888364       1.0000000        
P   1   1.00
      0.10592674296121       1.0000000        
P   1   1.00
      0.03530891432040       1.0000000        
D   1   1.00
      0.55696000000000       1.0000000        
D   1   1.00
      0.15619100000000       1.0000000        
****
Sn     0 
S   8   1.00
 754482.145507175            0.0044300        
 335325.398003189            0.0019800        
 149033.510223639            0.0090500        
  66237.1156549509           0.0048700        
  29438.7180688671           0.0207700        
  13083.8746972742           0.0329000        
   5815.05542101078          0.0770100        
   2584.46907600479          0.1516000        
S   1   1.00
   1148.65292266880          1.0000000        
S   1   1.00
    510.512410075020         1.0000000        
S   1   1.00
    226.894404477787         1.0000000        
S   1   1.00
    100.841957545683         1.0000000        
S   1   1.00
     44.8186477980813        1.0000000        
S   1   1.00
     19.9193990213695        1.0000000        
S   1   1.00
      8.85306623171977       1.0000000        
S   1   1.00
      3.93469610298656       1.0000000        
S   1   1.00
      1.74875382354958       1.0000000        
S   1   1.00
      0.77722392157759       1.0000000        
S   1   1.00
      0.34543285403449       1.0000000        
S   1   1.00
      0.15352571290422       1.0000000        
S   1   1.00
      0.06823365017965       1.0000000        
S   1   1.00
      0.01347825188734       1.0000000        
P   5   1.00
  10090.6583042438           0.0027500        
   4036.26332169752          0.0041800        
   1614.50532867901          0.0208900        
    645.802131471604         0.0713700        
    258.320852588642         0.2261300        
P   1   1.00
    103.328341035457         1.0000000        
P   1   1.00
     41.3313364141826        1.0000000        
P   1   1.00
     16.5325345656731        1.0000000        
P   1   1.00
      6.61301382626922       1.0000000        
P   1   1.00
      2.64520553050769       1.0000000        
P   1   1.00
      1.05808221220308       1.0000000        
P   1   1.00
      0.42323288488123       1.0000000        
P   1   1.00
      0.16929315395249       1.0000000        
P   1   1.00
      0.06771726158100       1.0000000        
P   1   1.00
      0.02708690463240       1.0000000        
P   1   1.00
      0.01083476185296       1.0000000        
D   4   1.00
    554.302506505741         0.0043700        
    201.564547820269         0.0251100        
     73.2961992073707        0.1331600        
     26.6531633481348        0.3890000        
D   1   1.00
      9.69205939932174       1.0000000        
D   1   1.00
      3.52438523611700       1.0000000        
D   1   1.00
      1.28159463131527       1.0000000        
D   1   1.00
      0.46603441138737       1.0000000        
D   1   1.00
      0.16946705868632       1.0000000        
F   1   1.00
      1.31400000000000       1.0000000        
F   1   1.00
      0.19993000000000       1.0000000        
****
Pt     0 
S   9   1.00
 2164481.60896527            0.0123200        
 1082240.80448263            0.0129700        
 541120.402241316            0.0263700        
 270560.201120658            0.0090400        
 135280.100560329            0.0349800        
  67640.0502801646           0.0122200        
  33820.0251400823           0.0605200        
  16910.0125700411           0.0649300        
   8455.00628502057          0.1381900        
S   1   1.00
   4227.50314251028          1.0000000        
S   1   1.00
   2113.75157125514          1.0000000        
S   1   1.00
   1056.87578562757          1.0000000        
S   1   1.00
    528.437892813786         1.0000000        
S   1   1.00
    264.218946406893         1.0000000        
S   1   1.00
    132.109473203446         1.0000000        
S   1   1.00
     66.0547366017232        1.0000000        
S   1   1.00
     33.0273683008616        1.0000000        
S   1   1.00
     16.5136841504308        1.0000000        
S   1   1.00
      8.25684207521540       1.0000000        
S   1   1.00
      4.12842103760770       1.0000000        
S   1   1.00
      2.06421051880385       1.0000000        
S   1   1.00
      1.03210525940192       1.0000000        
S   1   1.00
      0.51605262970096       1.0000000        
S   1   1.00
      0.25802631485048       1.0000000        
S   1   1.00
      0.12901315742524       1.0000000        
S   1   1.00
      0.06450657871262       1.0000000        
P   7   1.00
  32357.9152575654           0.0050200        
  14381.2956700291           0.0020200        
   6391.68696445736          0.0180700        
   2840.74976198105          0.0366200        
   1262.55544976936          0.1117200        
    561.135755453047         0.2558600        
    249.393669090243         0.4260800        
P   1   1.00
    110.841630706775         1.0000000        
P   1   1.00
     49.2629469807888        1.0000000        
P   1   1.00
     21.8946431025728        1.0000000        
P   1   1.00
      9.73095249003235       1.0000000        
P   1   1.00
      4.32486777334771       1.0000000        
P   1   1.00
      1.92216345482120       1.0000000        
P   1   1.00
      0.85429486880942       1.0000000        
P   1   1.00
      0.37968660835974       1.0000000        
P   1   1.00
      0.16874960371544       1.0000000        
P   1   1.00
      0.07499982387353       1.0000000        
P   1   1.00
      0.03333325505490       1.0000000        
D   5   1.00
   1911.90035078584          0.0043300        
    764.760140314335         0.0177800        
    305.904056125734         0.0897100        
    122.361622450294         0.3112300        
     48.9446489801175        0.5320600        
D   1   1.00
     19.5778595920470        1.0000000        
D   1   1.00
      7.83114383681879       1.0000000        
D   1   1.00
      3.13245753472752       1.0000000        
D   1   1.00
      1.25298301389101       1.0000000        
D   1   1.00
      0.50119320555640       1.0000000        
D   1   1.00
      0.20047728222256       1.0000000        
D   1   1.00
      0.08019091288902       1.0000000        
D   1   1.00
      0.03207636515561       1.0000000        
F   4   1.00
     82.2896809794193        0.0618700        
     29.9235203561525        0.2482300        
     10.8812801295100        0.4995600        
      3.95682913800363       0.4038000        
F   1   1.00
      1.43884695927405       1.0000000        
F   1   1.00
      0.52321707609965       1.0000000        
G   1   1.00
      2.67000000000000       1.0000000        
G   1   1.00
      0.90960000000000       1.0000000        
****



