%mem=7Gb
%nproc=4
#PBEPBE/gen scf=(maxcycle=500,conver=4) NMR=GIAO Scrf=(solvent=Dichloromethane)

estrutura 72

0 1
Pt       0.079153      -0.032565      -0.019745
P       -0.093314       2.374958       0.079417
P        0.270521      -2.427615      -0.028773
C       -0.601824       3.072487      -1.561429
H       -1.480919       2.487731      -1.873675
H        0.213292       2.804632      -2.255396
C       -0.915826       4.569845      -1.629230
H       -0.078997       5.194837      -1.280523
H       -1.128889       4.856231      -2.672559
H       -1.806270       4.824868      -1.033560
C       -1.406860       2.862301       1.316553
H       -1.409603       2.071234       2.082824
C        1.411948       3.343610       0.582085
H        1.048592       4.314740       0.948814
H        1.841307       2.822476       1.452412
C        2.477251       3.571915      -0.495255
H        3.326260       4.122459      -0.058995
H        2.865207       2.631679      -0.907385
H        2.092288       4.175935      -1.330722
C       -0.838816      -3.278309       1.186036
H       -0.638160      -4.359304       1.106381
H       -1.870209      -3.135365       0.826458
C       -0.686549      -2.797198       2.630737
H        0.333787      -2.957441       3.013184
H       -0.924052      -1.726203       2.724185
H       -1.377117      -3.349331       3.286839
C        1.965605      -3.074166       0.357254
H        2.642802      -2.624279      -0.383774
H        2.248698      -2.628603       1.323559
C        2.132417      -4.595163       0.390278
H        3.185478      -4.844890       0.598714
H        1.524173      -5.066824       1.177327
H        1.870617      -5.065113      -0.570454
C       -0.200744      -3.183770      -1.650710
H       -0.067534      -4.275407      -1.562747
H       -1.282922      -3.005386      -1.755819
C        0.556564      -2.632095      -2.861337
H        0.211904      -3.130464      -3.780989
H        0.381879      -1.550593      -2.980280
H        1.643697      -2.796272      -2.785801
Sn      -2.648904      -0.221088      -0.077589
Cl      -3.741558      -0.245482       2.112570
Cl      -4.020288       1.504761      -1.162595
Cl      -3.804276      -2.151066      -1.058296
C       -1.325088       4.234469       1.992169
H       -2.219227       4.378693       2.620240
H       -0.447384       4.319314       2.650682
H       -1.293762       5.064096       1.270373
H       -2.358226       2.763878       0.767394
C        2.119804       0.094938       0.027177
C        2.869826       0.025296      -1.166566
C        2.823705       0.210986       1.243273
C        4.263957       0.062361      -1.154551
H        2.359897      -0.065925      -2.128411
C        4.218264       0.253279       1.275157
H        2.279466       0.260784       2.190100
C        4.925742       0.176367       0.071929
H        4.842159       0.005698      -2.076821
H        4.762467       0.340050       2.215610
O        6.987201       0.145309      -0.971656
O        6.947359       0.314533       1.182791
N        6.390542       0.215013       0.096240

H     0
S   5   1.00
    282.952156333090         0.0004300
     87.0622019486430        0.0005100
     26.7883698303517        0.0061600
      8.24257533241590       0.0130300
      2.53617702535874       0.0994900
S   1   1.00
      0.78036216164884       1.0000000
S   1   1.00
      0.24011143435349       1.0000000
P   1   1.00
      0.88150000000000       1.0000000
P   1   1.00
      0.17989200000000       1.0000000
****
C     0
S   6   1.00
   8846.12353391750          0.0005300
   2948.70784463917          0.0007700
    982.902614879722         0.0040500
    327.634204959907         0.0140300
    109.211401653302         0.0534500
     36.4038005511008        0.1702700
S   1   1.00
     12.1346001837003        1.0000000
S   1   1.00
      4.04486672790009       1.0000000
S   1   1.00
      1.34828890930003       1.0000000
S   1   1.00
      0.44942963643334       1.0000000
S   1   1.00
      0.14980987881111       1.0000000
P   4   1.00
     37.2940933931704        0.0039600
     11.4751056594370        0.0188900
      3.53080174136525       0.0946100
      1.08640053580469       0.3188900
P   1   1.00
      0.33427708793991       1.0000000
P   1   1.00
      0.10285448859689       1.0000000
D   1   1.00
      0.47750000000000       1.0000000
D   1   1.00
      0.11998000000000       1.0000000
****
N     0
S   6   1.00
  12238.3269689590           0.0005600
   4079.44232298633          0.0007700
   1359.81410766211          0.0040600
    453.271369220703         0.0139100
    151.090456406901         0.0529900
     50.3634854689670        0.1695200
S   1   1.00
     16.7878284896557        1.0000000
S   1   1.00
      5.59594282988522       1.0000000
S   1   1.00
      1.86531427662841       1.0000000
S   1   1.00
      0.62177142554280       1.0000000
S   1   1.00
      0.20725714184760       1.0000000
P   4   1.00
     54.1425482486954        0.0039700
     16.6592456149832        0.0195400
      5.12592172768714       0.0997900
      1.57720668544220       0.3284500
P   1   1.00
      0.48529436475145       1.0000000
P   1   1.00
      0.14932134300045       1.0000000
D   1   1.00
      0.47700000000000       1.0000000
D   1   1.00
      0.15026000000000       1.0000000
****
O     0
S   6   1.00
  16178.1182314232           0.0006000
   5392.70607714106          0.0007800
   1797.56869238035          0.0041000
    599.189564126785         0.0138800
    199.729854708928         0.0527700
     66.5766182363094        0.1692400
S   1   1.00
     22.1922060787698        1.0000000
S   1   1.00
      7.39740202625660       1.0000000
S   1   1.00
      2.46580067541887       1.0000000
S   1   1.00
      0.82193355847296       1.0000000
S   1   1.00
      0.27397785282432       1.0000000
P   4   1.00
     73.8543986696091        0.0040200
     22.7244303598797        0.0201300
      6.99213241842453       0.1047000
      2.15142535951524       0.3360500
P   1   1.00
      0.66197703369700       1.0000000
P   1   1.00
      0.20368524113754       1.0000000
D   1   1.00
      0.92880000000000       1.0000000
D   1   1.00
      0.22975000000000       1.0000000
****
P     0
S   7   1.00
  59538.0043013517           0.0009500
  21650.1833823097           0.0006100
   7872.79395720353          0.0037500
   2862.83416625583          0.0096300
   1041.03060591121          0.0324300
    378.556583967713         0.0995000
    137.656939624623         0.2657000
S   1   1.00
     50.0570689544083        1.0000000
S   1   1.00
     18.2025705288757        1.0000000
S   1   1.00
      6.61911655595482       1.0000000
S   1   1.00
      2.40695147489266       1.0000000
S   1   1.00
      0.87525508177915       1.0000000
S   1   1.00
      0.31827457519242       1.0000000
S   1   1.00
      0.11573620916088       1.0000000
S   1   1.00
      0.04208589424032       1.0000000
P   5   1.00
    487.996723151500         0.0021600
    162.665574383833         0.0097900
     54.2218581279445        0.0548500
     18.0739527093148        0.2177000
      6.02465090310494       0.4897800
P   1   1.00
      2.00821696770165       1.0000000
P   1   1.00
      0.66940565590055       1.0000000
P   1   1.00
      0.22313521863352       1.0000000
P   1   1.00
      0.07437840621117       1.0000000
P   1   1.00
      0.02479280207039       1.0000000
D   1   1.00
      0.35395000000000       1.0000000
D   1   1.00
      0.08909800000000       1.0000000
****
Cl     0
S   7   1.00
  77142.8171643825           0.0010600
  28051.9335143209           0.0006400
  10200.7030961167           0.0039600
   3709.34658040607          0.0098300
   1348.85330196584          0.0326900
    490.492109805761         0.0995200
    178.360767202095         0.2655500
S   1   1.00
     64.8584608007618        1.0000000
S   1   1.00
     23.5848948366407        1.0000000
S   1   1.00
      8.57632539514206       1.0000000
S   1   1.00
      3.11866378005166       1.0000000
S   1   1.00
      1.13405955638242       1.0000000
S   1   1.00
      0.41238529322997       1.0000000
S   1   1.00
      0.14995828844726       1.0000000
S   1   1.00
      0.05453028670810       1.0000000
P   5   1.00
    694.985360568515         0.0020000
    231.661786856172         0.0089500
     77.2205956187239        0.0511300
     25.7401985395746        0.2101100
      8.58006617985821       0.4973800
P   1   1.00
      2.86002205995274       1.0000000
P   1   1.00
      0.95334068665091       1.0000000
P   1   1.00
      0.31778022888364       1.0000000
P   1   1.00
      0.10592674296121       1.0000000
P   1   1.00
      0.03530891432040       1.0000000
D   1   1.00
      0.55696000000000       1.0000000
D   1   1.00
      0.15619100000000       1.0000000
****
Sn     0
S   8   1.00
 754482.145507175            0.0044300
 335325.398003189            0.0019800
 149033.510223639            0.0090500
  66237.1156549509           0.0048700
  29438.7180688671           0.0207700
  13083.8746972742           0.0329000
   5815.05542101078          0.0770100
   2584.46907600479          0.1516000
S   1   1.00
   1148.65292266880          1.0000000
S   1   1.00
    510.512410075020         1.0000000
S   1   1.00
    226.894404477787         1.0000000
S   1   1.00
    100.841957545683         1.0000000
S   1   1.00
     44.8186477980813        1.0000000
S   1   1.00
     19.9193990213695        1.0000000
S   1   1.00
      8.85306623171977       1.0000000
S   1   1.00
      3.93469610298656       1.0000000
S   1   1.00
      1.74875382354958       1.0000000
S   1   1.00
      0.77722392157759       1.0000000
S   1   1.00
      0.34543285403449       1.0000000
S   1   1.00
      0.15352571290422       1.0000000
S   1   1.00
      0.06823365017965       1.0000000
S   1   1.00
      0.01347825188734       1.0000000
P   5   1.00
  10090.6583042438           0.0027500
   4036.26332169752          0.0041800
   1614.50532867901          0.0208900
    645.802131471604         0.0713700
    258.320852588642         0.2261300
P   1   1.00
    103.328341035457         1.0000000
P   1   1.00
     41.3313364141826        1.0000000
P   1   1.00
     16.5325345656731        1.0000000
P   1   1.00
      6.61301382626922       1.0000000
P   1   1.00
      2.64520553050769       1.0000000
P   1   1.00
      1.05808221220308       1.0000000
P   1   1.00
      0.42323288488123       1.0000000
P   1   1.00
      0.16929315395249       1.0000000
P   1   1.00
      0.06771726158100       1.0000000
P   1   1.00
      0.02708690463240       1.0000000
P   1   1.00
      0.01083476185296       1.0000000
D   4   1.00
    554.302506505741         0.0043700
    201.564547820269         0.0251100
     73.2961992073707        0.1331600
     26.6531633481348        0.3890000
D   1   1.00
      9.69205939932174       1.0000000
D   1   1.00
      3.52438523611700       1.0000000
D   1   1.00
      1.28159463131527       1.0000000
D   1   1.00
      0.46603441138737       1.0000000
D   1   1.00
      0.16946705868632       1.0000000
F   1   1.00
      1.31400000000000       1.0000000
F   1   1.00
      0.19993000000000       1.0000000
****
Pt     0
S   9   1.00
2164481.60896527             0.0123200
1082240.80448263             0.0129700
 541120.402241316            0.0263700
 270560.201120658            0.0090400
 135280.100560329            0.0349800
  67640.0502801646           0.0122200
  33820.0251400823           0.0605200
  16910.0125700411           0.0649300
   8455.00628502057          0.1381900
S   1   1.00
   4227.50314251028          1.0000000
S   1   1.00
   2113.75157125514          1.0000000
S   1   1.00
   1056.87578562757          1.0000000
S   1   1.00
    528.437892813786         1.0000000
S   1   1.00
    264.218946406893         1.0000000
S   1   1.00
    132.109473203446         1.0000000
S   1   1.00
     66.0547366017232        1.0000000
S   1   1.00
     33.0273683008616        1.0000000
S   1   1.00
     16.5136841504308        1.0000000
S   1   1.00
      8.25684207521540       1.0000000
S   1   1.00
      4.12842103760770       1.0000000
S   1   1.00
      2.06421051880385       1.0000000
S   1   1.00
      1.03210525940192       1.0000000
S   1   1.00
      0.51605262970096       1.0000000
S   1   1.00
      0.25802631485048       1.0000000
S   1   1.00
      0.12901315742524       1.0000000
S   1   1.00
      0.06450657871262       1.0000000
P   7   1.00
  32357.9152575654           0.0050200
  14381.2956700291           0.0020200
   6391.68696445736          0.0180700
   2840.74976198105          0.0366200
   1262.55544976936          0.1117200
    561.135755453047         0.2558600
    249.393669090243         0.4260800
P   1   1.00
    110.841630706775         1.0000000
P   1   1.00
     49.2629469807888        1.0000000
P   1   1.00
     21.8946431025728        1.0000000
P   1   1.00
      9.73095249003235       1.0000000
P   1   1.00
      4.32486777334771       1.0000000
P   1   1.00
      1.92216345482120       1.0000000
P   1   1.00
      0.85429486880942       1.0000000
P   1   1.00
      0.37968660835974       1.0000000
P   1   1.00
      0.16874960371544       1.0000000
P   1   1.00
      0.07499982387353       1.0000000
P   1   1.00
      0.03333325505490       1.0000000
D   5   1.00
   1911.90035078584          0.0043300
    764.760140314335         0.0177800
    305.904056125734         0.0897100
    122.361622450294         0.3112300
     48.9446489801175        0.5320600
D   1   1.00
     19.5778595920470        1.0000000
D   1   1.00
      7.83114383681879       1.0000000
D   1   1.00
      3.13245753472752       1.0000000
D   1   1.00
      1.25298301389101       1.0000000
D   1   1.00
      0.50119320555640       1.0000000
D   1   1.00
      0.20047728222256       1.0000000
D   1   1.00
      0.08019091288902       1.0000000
D   1   1.00
      0.03207636515561       1.0000000
F   4   1.00
     82.2896809794193        0.0618700
     29.9235203561525        0.2482300
     10.8812801295100        0.4995600
      3.95682913800363       0.4038000
F   1   1.00
      1.43884695927405       1.0000000
F   1   1.00
      0.52321707609965       1.0000000
G   1   1.00
      2.67000000000000       1.0000000
G   1   1.00
      0.90960000000000       1.0000000
****



