%mem=30Gb
%nproc=24
#PBEPBE/gen scf=(maxcycle=500,conver=3) NMR=GIAO Scrf=(solvent=Dichloromethane)

estrutura 99

0 1
Pt      -0.136232       0.412579       0.159174
P       -2.665550       0.894313       0.083528
P       -0.248261      -1.885159       0.021096
C       -3.076847       1.801964      -1.473801
C       -4.325096       2.430560      -1.652950
C       -2.156375       1.810954      -2.536755
C       -4.627218       3.081351      -2.850751
H       -5.076620       2.408621      -0.859327
C       -2.469280       2.446901      -3.743602
H       -1.193176       1.309585      -2.424211
C       -3.699117       3.093149      -3.899769
H       -5.595916       3.574781      -2.969217
H       -1.746400       2.434289      -4.563231
H       -3.940087       3.598682      -4.838274
C       -3.092369       2.052933       1.473169
C       -2.989638       1.594844       2.800570
C       -3.431202       3.400984       1.263080
C       -3.278957       2.436233       3.878609
H       -2.661400       0.577176       3.012300
C       -3.714952       4.244477       2.342521
H       -3.451490       3.815589       0.255818
C       -3.653360       3.764278       3.653478
H       -3.200826       2.050127       4.898472
H       -3.977071       5.288488       2.151433
H       -3.878873       4.424356       4.495176
C       -4.043565      -0.368196       0.120065
C       -4.628423      -0.792874      -1.087578
C       -4.517024      -0.933302       1.318351
C       -5.676051      -1.718781      -1.091860
H       -4.277735      -0.394436      -2.039726
C       -5.559667      -1.864048       1.311818
H       -4.091795      -0.647812       2.277944
C       -6.150747      -2.254606       0.107326
H       -6.123099      -2.016629      -2.043441
H       -5.914248      -2.277577       2.259346
H       -6.976855      -2.971304       0.104863
C        1.233186      -3.011743      -0.050173
C        1.705891      -3.557808      -1.253684
C        1.852339      -3.393482       1.154116
C        2.762493      -4.476066      -1.251531
H        1.247260      -3.287901      -2.203780
C        2.907592      -4.310836       1.153423
H        1.497507      -2.996838       2.106979
C        3.362888      -4.858188      -0.050523
H        3.109573      -4.895250      -2.199128
H        3.368601      -4.601697       2.099895
H        4.181728      -5.583659      -0.050540
C       -1.155059      -2.324658      -1.527812
C       -2.238508      -3.212317      -1.600005
C       -0.684086      -1.729913      -2.715392
C       -2.820299      -3.518637      -2.835202
H       -2.653292      -3.661283      -0.698244
C       -1.263995      -2.041709      -3.946449
H        0.149732      -1.023995      -2.677683
C       -2.333137      -2.942582      -4.010743
H       -3.666551      -4.208391      -2.872115
H       -0.879944      -1.576928      -4.857658
H       -2.788635      -3.186358      -4.973266
C       -1.092531      -2.625035       1.488542
C       -1.445561      -3.987155       1.541323
C       -1.245063      -1.842551       2.644054
C       -1.989365      -4.532325       2.706671
H       -1.275426      -4.638961       0.682772
C       -1.771579      -2.395026       3.817484
H       -0.919246      -0.799564       2.625283
C       -2.157616      -3.737356       3.846513
H       -2.268494      -5.588842       2.729161
H       -1.872702      -1.773786       4.711185
H       -2.573788      -4.170160       4.760058
Sn       2.538459       0.656106       0.173987
Br       0.011308       2.976606       0.300505
Br       3.507965      -0.458420      -2.024517
C        3.368802       2.675941      -0.154552
H        2.849458       3.057772      -1.048175
H        2.987539       3.257700       0.697647
C        4.884792       2.806223      -0.295623
H        5.382150       2.461053       0.628601
H        5.245847       2.143251      -1.101140
C        5.360839       4.240951      -0.600586
H        6.455746       4.219195      -0.749468
H        4.930980       4.565430      -1.565854
C        5.023298       5.274767       0.476467
H        3.934931       5.422864       0.577432
H        5.407877       4.963583       1.464066
H        5.467430       6.257512       0.240355
C        3.578491      -0.311295       1.882002
H        3.823178       0.533409       2.551159
H        2.787341      -0.890067       2.381526
C        4.810479      -1.188304       1.633421
H        5.019338      -1.761332       2.559381
H        4.584700      -1.947243       0.864094
C        6.086537      -0.437686       1.238051
H        6.302621       0.335875       1.998022
H        5.916338       0.102480       0.291598
C        7.302923      -1.352872       1.083852
H        7.142023      -2.101385       0.289458
H        8.211197      -0.781528       0.823913
H        7.513125      -1.902121       2.019241

H     0
S   5   1.00
    282.952156333090         0.0004300
     87.0622019486430        0.0005100
     26.7883698303517        0.0061600
      8.24257533241590       0.0130300
      2.53617702535874       0.0994900
S   1   1.00
      0.78036216164884       1.0000000
S   1   1.00
      0.24011143435349       1.0000000
P   1   1.00
      0.88150000000000       1.0000000
P   1   1.00
      0.17989200000000       1.0000000
****
C     0
S   6   1.00
   8846.12353391750          0.0005300
   2948.70784463917          0.0007700
    982.902614879722         0.0040500
    327.634204959907         0.0140300
    109.211401653302         0.0534500
     36.4038005511008        0.1702700
S   1   1.00
     12.1346001837003        1.0000000
S   1   1.00
      4.04486672790009       1.0000000
S   1   1.00
      1.34828890930003       1.0000000
S   1   1.00
      0.44942963643334       1.0000000
S   1   1.00
      0.14980987881111       1.0000000
P   4   1.00
     37.2940933931704        0.0039600
     11.4751056594370        0.0188900
      3.53080174136525       0.0946100
      1.08640053580469       0.3188900
P   1   1.00
      0.33427708793991       1.0000000
P   1   1.00
      0.10285448859689       1.0000000
D   1   1.00
      0.47750000000000       1.0000000
D   1   1.00
      0.11998000000000       1.0000000
****
P     0
S   7   1.00
  59538.0043013517           0.0009500
  21650.1833823097           0.0006100
   7872.79395720353          0.0037500
   2862.83416625583          0.0096300
   1041.03060591121          0.0324300
    378.556583967713         0.0995000
    137.656939624623         0.2657000
S   1   1.00
     50.0570689544083        1.0000000
S   1   1.00
     18.2025705288757        1.0000000
S   1   1.00
      6.61911655595482       1.0000000
S   1   1.00
      2.40695147489266       1.0000000
S   1   1.00
      0.87525508177915       1.0000000
S   1   1.00
      0.31827457519242       1.0000000
S   1   1.00
      0.11573620916088       1.0000000
S   1   1.00
      0.04208589424032       1.0000000
P   5   1.00
    487.996723151500         0.0021600
    162.665574383833         0.0097900
     54.2218581279445        0.0548500
     18.0739527093148        0.2177000
      6.02465090310494       0.4897800
P   1   1.00
      2.00821696770165       1.0000000
P   1   1.00
      0.66940565590055       1.0000000
P   1   1.00
      0.22313521863352       1.0000000
P   1   1.00
      0.07437840621117       1.0000000
P   1   1.00
      0.02479280207039       1.0000000
D   1   1.00
      0.35395000000000       1.0000000
D   1   1.00
      0.08909800000000       1.0000000
****
Br     0
S   7   1.00
 348670.995115554            0.0024100
 139468.398046222            0.0001200
  55787.3592184887           0.0058500
  22314.9436873955           0.0082100
   8925.97747495819          0.0240900
   3570.39098998328          0.0572500
   1428.15639599331          0.1446700
S   1   1.00
    571.262558397324         1.0000000
S   1   1.00
    228.505023358930         1.0000000
S   1   1.00
     91.4020093435719        1.0000000
S   1   1.00
     36.5608037374287        1.0000000
S   1   1.00
     14.6243214949715        1.0000000
S   1   1.00
      5.84972859798860       1.0000000
S   1   1.00
      2.33989143919544       1.0000000
S   1   1.00
      0.93595657567818       1.0000000
S   1   1.00
      0.37438263027127       1.0000000
S   1   1.00
      0.14975305210851       1.0000000
S   1   1.00
      0.05990122084340       1.0000000
P   5   1.00
   4271.50436123164          0.0020900
   1553.27431317514          0.0055700
    564.827022972778         0.0302500
    205.391644717374         0.1219600
     74.6878708063178        0.3786100
P   1   1.00
     27.1592257477519        1.0000000
P   1   1.00
      9.87608209009161       1.0000000
P   1   1.00
      3.59130257821513       1.0000000
P   1   1.00
      1.30592821026005       1.0000000
P   1   1.00
      0.47488298554911       1.0000000
P   1   1.00
      0.17268472201786       1.0000000
P   1   1.00
      0.06279444437013       1.0000000
P   1   1.00
      0.02283434340732       1.0000000
D   4   1.00
    157.766242822167         0.0079800
     52.5887476073889        0.0498700
     17.5295825357963        0.2240500
      5.84319417859877       0.4425000
D   1   1.00
      1.94773139286626       1.0000000
D   1   1.00
      0.64924379762209       1.0000000
F   1   1.00
      1.64800000000000       1.0000000
F   1   1.00
      0.45490000000000       1.0000000
****
Sn     0
S   8   1.00
 754482.145507175            0.0044300
 335325.398003189            0.0019800
 149033.510223639            0.0090500
  66237.1156549509           0.0048700
  29438.7180688671           0.0207700
  13083.8746972742           0.0329000
   5815.05542101078          0.0770100
   2584.46907600479          0.1516000
S   1   1.00
   1148.65292266880          1.0000000
S   1   1.00
    510.512410075020         1.0000000
S   1   1.00
    226.894404477787         1.0000000
S   1   1.00
    100.841957545683         1.0000000
S   1   1.00
     44.8186477980813        1.0000000
S   1   1.00
     19.9193990213695        1.0000000
S   1   1.00
      8.85306623171977       1.0000000
S   1   1.00
      3.93469610298656       1.0000000
S   1   1.00
      1.74875382354958       1.0000000
S   1   1.00
      0.77722392157759       1.0000000
S   1   1.00
      0.34543285403449       1.0000000
S   1   1.00
      0.15352571290422       1.0000000
S   1   1.00
      0.06823365017965       1.0000000
S   1   1.00
      0.01347825188734       1.0000000
P   5   1.00
  10090.6583042438           0.0027500
   4036.26332169752          0.0041800
   1614.50532867901          0.0208900
    645.802131471604         0.0713700
    258.320852588642         0.2261300
P   1   1.00
    103.328341035457         1.0000000
P   1   1.00
     41.3313364141826        1.0000000
P   1   1.00
     16.5325345656731        1.0000000
P   1   1.00
      6.61301382626922       1.0000000
P   1   1.00
      2.64520553050769       1.0000000
P   1   1.00
      1.05808221220308       1.0000000
P   1   1.00
      0.42323288488123       1.0000000
P   1   1.00
      0.16929315395249       1.0000000
P   1   1.00
      0.06771726158100       1.0000000
P   1   1.00
      0.02708690463240       1.0000000
P   1   1.00
      0.01083476185296       1.0000000
D   4   1.00
    554.302506505741         0.0043700
    201.564547820269         0.0251100
     73.2961992073707        0.1331600
     26.6531633481348        0.3890000
D   1   1.00
      9.69205939932174       1.0000000
D   1   1.00
      3.52438523611700       1.0000000
D   1   1.00
      1.28159463131527       1.0000000
D   1   1.00
      0.46603441138737       1.0000000
D   1   1.00
      0.16946705868632       1.0000000
F   1   1.00
      1.31400000000000       1.0000000
F   1   1.00
      0.19993000000000       1.0000000
****
Pt     0
S   9   1.00
2164481.60896527             0.0123200
1082240.80448263             0.0129700
 541120.402241316            0.0263700
 270560.201120658            0.0090400
 135280.100560329            0.0349800
  67640.0502801646           0.0122200
  33820.0251400823           0.0605200
  16910.0125700411           0.0649300
   8455.00628502057          0.1381900
S   1   1.00
   4227.50314251028          1.0000000
S   1   1.00
   2113.75157125514          1.0000000
S   1   1.00
   1056.87578562757          1.0000000
S   1   1.00
    528.437892813786         1.0000000
S   1   1.00
    264.218946406893         1.0000000
S   1   1.00
    132.109473203446         1.0000000
S   1   1.00
     66.0547366017232        1.0000000
S   1   1.00
     33.0273683008616        1.0000000
S   1   1.00
     16.5136841504308        1.0000000
S   1   1.00
      8.25684207521540       1.0000000
S   1   1.00
      4.12842103760770       1.0000000
S   1   1.00
      2.06421051880385       1.0000000
S   1   1.00
      1.03210525940192       1.0000000
S   1   1.00
      0.51605262970096       1.0000000
S   1   1.00
      0.25802631485048       1.0000000
S   1   1.00
      0.12901315742524       1.0000000
S   1   1.00
      0.06450657871262       1.0000000
P   7   1.00
  32357.9152575654           0.0050200
  14381.2956700291           0.0020200
   6391.68696445736          0.0180700
   2840.74976198105          0.0366200
   1262.55544976936          0.1117200
    561.135755453047         0.2558600
    249.393669090243         0.4260800
P   1   1.00
    110.841630706775         1.0000000
P   1   1.00
     49.2629469807888        1.0000000
P   1   1.00
     21.8946431025728        1.0000000
P   1   1.00
      9.73095249003235       1.0000000
P   1   1.00
      4.32486777334771       1.0000000
P   1   1.00
      1.92216345482120       1.0000000
P   1   1.00
      0.85429486880942       1.0000000
P   1   1.00
      0.37968660835974       1.0000000
P   1   1.00
      0.16874960371544       1.0000000
P   1   1.00
      0.07499982387353       1.0000000
P   1   1.00
      0.03333325505490       1.0000000
D   5   1.00
   1911.90035078584          0.0043300
    764.760140314335         0.0177800
    305.904056125734         0.0897100
    122.361622450294         0.3112300
     48.9446489801175        0.5320600
D   1   1.00
     19.5778595920470        1.0000000
D   1   1.00
      7.83114383681879       1.0000000
D   1   1.00
      3.13245753472752       1.0000000
D   1   1.00
      1.25298301389101       1.0000000
D   1   1.00
      0.50119320555640       1.0000000
D   1   1.00
      0.20047728222256       1.0000000
D   1   1.00
      0.08019091288902       1.0000000
D   1   1.00
      0.03207636515561       1.0000000
F   4   1.00
     82.2896809794193        0.0618700
     29.9235203561525        0.2482300
     10.8812801295100        0.4995600
      3.95682913800363       0.4038000
F   1   1.00
      1.43884695927405       1.0000000
F   1   1.00
      0.52321707609965       1.0000000
G   1   1.00
      2.67000000000000       1.0000000
G   1   1.00
      0.90960000000000       1.0000000
****






