%mem=30Gb
%nproc=24
#PBEPBE/gen scf=(maxcycle=500,conver=2) NMR=GIAO Scrf=(solvent=Dichloromethane) 

estrutura 91

0 1
Pt       0.715628       0.354789      -0.164155
C        0.747512       2.433612      -0.054315
C        0.606324       3.168188       1.139097
C        0.952662       3.180728      -1.233726
C        0.681320       4.566895       1.160112
H        0.418622       2.650296       2.081918
C        1.018141       4.579699      -1.224218
H        1.075417       2.662546      -2.189338
C        0.885806       5.283573      -0.022710
H        0.565363       5.098231       2.109766
H        1.177887       5.119846      -2.162586
H        0.936788       6.375939      -0.009757
P        3.096599       0.480210       0.541703
P        0.531277      -2.061025      -0.422267
C        3.201793       0.719270       2.372198
C        4.446112       0.874572       3.013759
C        2.038432       0.662004       3.155384
C        4.516442       0.999809       4.402480
H        5.369167       0.885124       2.429620
C        2.111145       0.779663       4.548384
H        1.072100       0.506815       2.671102
C        3.347937       0.954796       5.173298
H        5.488790       1.124010       4.885801
H        1.196049       0.727579       5.143828
H        3.405422       1.045917       6.260860
C        3.948057       1.928551      -0.232437
C        4.030570       1.967907      -1.637192
C        4.478641       3.000970       0.500188
C        4.668355       3.025646      -2.288314
H        3.581627       1.173050      -2.237408
C        5.101584       4.069741      -0.154437
H        4.400945       3.020120       1.587243
C        5.208761       4.081383      -1.546924
H        4.728751       3.031333      -3.379318
H        5.503982       4.898023       0.433985
H        5.700224       4.915092      -2.054394
C        4.352934      -0.883177       0.336791
C        4.278341      -1.986394       1.206614
C        5.366050      -0.866353      -0.635682
C        5.187626      -3.041710       1.104840
H        3.512897      -2.020450       1.982790
C        6.277383      -1.923074      -0.735509
H        5.465471      -0.023795      -1.318094
C        6.191273      -3.015520       0.131235
H        5.111137      -3.885691       1.794000
H        7.062024      -1.884045      -1.495954
H        6.905437      -3.838926       0.052994
C       -1.040595      -2.805415      -1.081024
C       -1.759532      -3.801222      -0.403077
C       -1.471513      -2.403833      -2.357529
C       -2.888118      -4.383825      -0.990725
H       -1.445654      -4.130542       0.588386
C       -2.595985      -2.988576      -2.943318
H       -0.926410      -1.630535      -2.904524
C       -3.308502      -3.981340      -2.260872
H       -3.439663      -5.155952      -0.447822
H       -2.919654      -2.661722      -3.934398
H       -4.190282      -4.437917      -2.718435
C        0.744815      -2.940437       1.191043
C        1.605822      -4.028553       1.400840
C       -0.023097      -2.464889       2.271773
C        1.697205      -4.627687       2.662955
H        2.224166      -4.409285       0.587983
C        0.064626      -3.069739       3.528294
H       -0.706240      -1.623941       2.127318
C        0.927830      -4.152376       3.728265
H        2.375810      -5.471388       2.810374
H       -0.543142      -2.691425       4.353843
H        1.000609      -4.622900       4.712237
C        1.689676      -2.817460      -1.655901
C        1.666138      -4.196693      -1.941626
C        2.502968      -1.982799      -2.435631
C        2.463001      -4.724773      -2.958516
H        1.002946      -4.863393      -1.386969
C        3.291286      -2.509694      -3.464661
H        2.501899      -0.907973      -2.246528
C        3.278136      -3.881886      -3.723534
H        2.435217      -5.797620      -3.165802
H        3.913574      -1.841916      -4.065268
H        3.892104      -4.295505      -4.527111
Sn      -1.868845       0.903584      -0.518755
C       -2.599023       0.995064      -2.599140
C       -3.850975       0.466555      -2.957381
C       -1.833384       1.615570      -3.603521
C       -4.329792       0.564795      -4.270414
H       -4.459953      -0.045198      -2.206194
C       -2.305128       1.714060      -4.920237
H       -0.851847       2.034735      -3.365612
C       -3.557343       1.190325      -5.256240
H       -5.308736       0.149125      -4.525383
H       -1.692121       2.201881      -5.684286
H       -3.929057       1.267603      -6.282229
C       -2.689028       2.762802       0.323090
C       -3.122851       3.797916      -0.520787
C       -2.809077       2.950097       1.711494
C       -3.655836       4.984090       0.001794
H       -3.051194       3.686226      -1.606503
C       -3.343986       4.130228       2.240274
H       -2.484626       2.164098       2.400670
C       -3.768474       5.152874       1.384476
H       -3.986354       5.776322      -0.675725
H       -3.429257       4.253366       3.323646
H       -4.186023       6.076277       1.794716
S       -3.393518      -0.747016       0.638711
C       -4.987768       0.183914       0.898518
H       -4.778049       1.111998       1.446143
H       -5.403942       0.453617      -0.082700
C       -5.956086      -0.681250       1.662288
C       -6.786339      -1.596639       0.993101
C       -6.034761      -0.608275       3.063671
C       -7.675335      -2.408787       1.702367
H       -6.734254      -1.670549      -0.097041
C       -6.922994      -1.419190       3.776332
H       -5.393864       0.096995       3.600128
C       -7.747132      -2.322792       3.097680
H       -8.317220      -3.110638       1.163566
H       -6.973862      -1.343022       4.866108
H       -8.443904      -2.955740       3.653071

H     0
S   5   1.00
    282.952156333090         0.0004300
     87.0622019486430        0.0005100
     26.7883698303517        0.0061600
      8.24257533241590       0.0130300
      2.53617702535874       0.0994900
S   1   1.00
      0.78036216164884       1.0000000
S   1   1.00
      0.24011143435349       1.0000000
P   1   1.00
      0.88150000000000       1.0000000
P   1   1.00
      0.17989200000000       1.0000000
****
C     0
S   6   1.00
   8846.12353391750          0.0005300
   2948.70784463917          0.0007700
    982.902614879722         0.0040500
    327.634204959907         0.0140300
    109.211401653302         0.0534500
     36.4038005511008        0.1702700
S   1   1.00
     12.1346001837003        1.0000000
S   1   1.00
      4.04486672790009       1.0000000
S   1   1.00
      1.34828890930003       1.0000000
S   1   1.00
      0.44942963643334       1.0000000
S   1   1.00
      0.14980987881111       1.0000000
P   4   1.00
     37.2940933931704        0.0039600
     11.4751056594370        0.0188900
      3.53080174136525       0.0946100
      1.08640053580469       0.3188900
P   1   1.00
      0.33427708793991       1.0000000
P   1   1.00
      0.10285448859689       1.0000000
D   1   1.00
      0.47750000000000       1.0000000
D   1   1.00
      0.11998000000000       1.0000000
****
P     0
S   7   1.00
  59538.0043013517           0.0009500
  21650.1833823097           0.0006100
   7872.79395720353          0.0037500
   2862.83416625583          0.0096300
   1041.03060591121          0.0324300
    378.556583967713         0.0995000
    137.656939624623         0.2657000
S   1   1.00
     50.0570689544083        1.0000000
S   1   1.00
     18.2025705288757        1.0000000
S   1   1.00
      6.61911655595482       1.0000000
S   1   1.00
      2.40695147489266       1.0000000
S   1   1.00
      0.87525508177915       1.0000000
S   1   1.00
      0.31827457519242       1.0000000
S   1   1.00
      0.11573620916088       1.0000000
S   1   1.00
      0.04208589424032       1.0000000
P   5   1.00
    487.996723151500         0.0021600
    162.665574383833         0.0097900
     54.2218581279445        0.0548500
     18.0739527093148        0.2177000
      6.02465090310494       0.4897800
P   1   1.00
      2.00821696770165       1.0000000
P   1   1.00
      0.66940565590055       1.0000000
P   1   1.00
      0.22313521863352       1.0000000
P   1   1.00
      0.07437840621117       1.0000000
P   1   1.00
      0.02479280207039       1.0000000
D   1   1.00
      0.35395000000000       1.0000000
D   1   1.00
      0.08909800000000       1.0000000
****
Sn     0
S   8   1.00
 754482.145507175            0.0044300
 335325.398003189            0.0019800
 149033.510223639            0.0090500
  66237.1156549509           0.0048700
  29438.7180688671           0.0207700
  13083.8746972742           0.0329000
   5815.05542101078          0.0770100
   2584.46907600479          0.1516000
S   1   1.00
   1148.65292266880          1.0000000
S   1   1.00
    510.512410075020         1.0000000
S   1   1.00
    226.894404477787         1.0000000
S   1   1.00
    100.841957545683         1.0000000
S   1   1.00
     44.8186477980813        1.0000000
S   1   1.00
     19.9193990213695        1.0000000
S   1   1.00
      8.85306623171977       1.0000000
S   1   1.00
      3.93469610298656       1.0000000
S   1   1.00
      1.74875382354958       1.0000000
S   1   1.00
      0.77722392157759       1.0000000
S   1   1.00
      0.34543285403449       1.0000000
S   1   1.00
      0.15352571290422       1.0000000
S   1   1.00
      0.06823365017965       1.0000000
S   1   1.00
      0.01347825188734       1.0000000
P   5   1.00
  10090.6583042438           0.0027500
   4036.26332169752          0.0041800
   1614.50532867901          0.0208900
    645.802131471604         0.0713700
    258.320852588642         0.2261300
P   1   1.00
    103.328341035457         1.0000000
P   1   1.00
     41.3313364141826        1.0000000
P   1   1.00
     16.5325345656731        1.0000000
P   1   1.00
      6.61301382626922       1.0000000
P   1   1.00
      2.64520553050769       1.0000000
P   1   1.00
      1.05808221220308       1.0000000
P   1   1.00
      0.42323288488123       1.0000000
P   1   1.00
      0.16929315395249       1.0000000
P   1   1.00
      0.06771726158100       1.0000000
P   1   1.00
      0.02708690463240       1.0000000
P   1   1.00
      0.01083476185296       1.0000000
D   4   1.00
    554.302506505741         0.0043700
    201.564547820269         0.0251100
     73.2961992073707        0.1331600
     26.6531633481348        0.3890000
D   1   1.00
      9.69205939932174       1.0000000
D   1   1.00
      3.52438523611700       1.0000000
D   1   1.00
      1.28159463131527       1.0000000
D   1   1.00
      0.46603441138737       1.0000000
D   1   1.00
      0.16946705868632       1.0000000
F   1   1.00
      1.31400000000000       1.0000000
F   1   1.00
      0.19993000000000       1.0000000
****
Pt     0
S   9   1.00
2164481.60896527             0.0123200
1082240.80448263             0.0129700
 541120.402241316            0.0263700
 270560.201120658            0.0090400
 135280.100560329            0.0349800
  67640.0502801646           0.0122200
  33820.0251400823           0.0605200
  16910.0125700411           0.0649300
   8455.00628502057          0.1381900
S   1   1.00
   4227.50314251028          1.0000000
S   1   1.00
   2113.75157125514          1.0000000
S   1   1.00
   1056.87578562757          1.0000000
S   1   1.00
    528.437892813786         1.0000000
S   1   1.00
    264.218946406893         1.0000000
S   1   1.00
    132.109473203446         1.0000000
S   1   1.00
     66.0547366017232        1.0000000
S   1   1.00
     33.0273683008616        1.0000000
S   1   1.00
     16.5136841504308        1.0000000
S   1   1.00
      8.25684207521540       1.0000000
S   1   1.00
      4.12842103760770       1.0000000
S   1   1.00
      2.06421051880385       1.0000000
S   1   1.00
      1.03210525940192       1.0000000
S   1   1.00
      0.51605262970096       1.0000000
S   1   1.00
      0.25802631485048       1.0000000
S   1   1.00
      0.12901315742524       1.0000000
S   1   1.00
      0.06450657871262       1.0000000
P   7   1.00
  32357.9152575654           0.0050200
  14381.2956700291           0.0020200
   6391.68696445736          0.0180700
   2840.74976198105          0.0366200
   1262.55544976936          0.1117200
    561.135755453047         0.2558600
    249.393669090243         0.4260800
P   1   1.00
    110.841630706775         1.0000000
P   1   1.00
     49.2629469807888        1.0000000
P   1   1.00
     21.8946431025728        1.0000000
P   1   1.00
      9.73095249003235       1.0000000
P   1   1.00
      4.32486777334771       1.0000000
P   1   1.00
      1.92216345482120       1.0000000
P   1   1.00
      0.85429486880942       1.0000000
P   1   1.00
      0.37968660835974       1.0000000
P   1   1.00
      0.16874960371544       1.0000000
P   1   1.00
      0.07499982387353       1.0000000
P   1   1.00
      0.03333325505490       1.0000000
D   5   1.00
   1911.90035078584          0.0043300
    764.760140314335         0.0177800
    305.904056125734         0.0897100
    122.361622450294         0.3112300
     48.9446489801175        0.5320600
D   1   1.00
     19.5778595920470        1.0000000
D   1   1.00
      7.83114383681879       1.0000000
D   1   1.00
      3.13245753472752       1.0000000
D   1   1.00
      1.25298301389101       1.0000000
D   1   1.00
      0.50119320555640       1.0000000
D   1   1.00
      0.20047728222256       1.0000000
D   1   1.00
      0.08019091288902       1.0000000
D   1   1.00
      0.03207636515561       1.0000000
F   4   1.00
     82.2896809794193        0.0618700
     29.9235203561525        0.2482300
     10.8812801295100        0.4995600
      3.95682913800363       0.4038000
F   1   1.00
      1.43884695927405       1.0000000
F   1   1.00
      0.52321707609965       1.0000000
G   1   1.00
      2.67000000000000       1.0000000
G   1   1.00
      0.90960000000000       1.0000000
****

