%mem=7Gb
%nproc=4
#PBEPBE/gen scf=(maxcycle=500,conver=3) NMR=GIAO Scrf=(solvent=Dichloromethane)

estrutura 109

0 1
Pt       0.112404      -0.808526      -0.036150
P       -2.256634      -1.173829       0.151564
C       -3.556464       0.154858       0.293544
C       -4.283498       0.390838       1.473465
C       -3.901255       0.869835      -0.867539
C       -5.339979       1.310917       1.486772
H       -4.048639      -0.154859       2.387918
C       -4.954708       1.787826      -0.851086
H       -3.348845       0.708184      -1.795026
C       -5.683596       2.006383       0.324267
H       -5.902040       1.472890       2.411549
H       -5.206148       2.333351      -1.764157
H       -6.513815       2.718820       0.335376
C       -2.515754      -2.149417       1.699436
C       -3.214296      -3.364598       1.740517
C       -1.968337      -1.639722       2.889935
C       -3.371342      -4.049028       2.950144
H       -3.625881      -3.796480       0.828808
C       -2.135425      -2.319121       4.098393
H       -1.403784      -0.705074       2.874715
C       -2.837887      -3.528706       4.131847
H       -3.910732      -4.999117       2.964191
H       -1.707849      -1.907070       5.015342
H       -2.961437      -4.066681       5.075201
C       -2.982488      -2.137014      -1.249275
C       -4.363244      -2.412807      -1.270660
C       -2.190926      -2.549391      -2.332366
C       -4.930301      -3.113640      -2.335856
H       -5.007072      -2.070545      -0.457416
C       -2.764496      -3.241218      -3.404897
H       -1.123980      -2.331315      -2.334600
C       -4.130111      -3.532968      -3.405285
H       -6.003372      -3.324912      -2.333930
H       -2.135044      -3.556378      -4.240999
H       -4.574256      -4.079083      -4.240540
Sn      -0.004455       1.869410      -0.075055
P        2.492633      -0.673479      -0.056567
C        3.481367      -2.241496      -0.017008
C        3.714689      -2.940221      -1.215074
C        4.004244      -2.751976       1.181592
C        4.465697      -4.117028      -1.213861
H        3.313244      -2.565485      -2.158768
C        4.757720      -3.930838       1.179165
H        3.834331      -2.232035       2.125812
C        4.991448      -4.615031      -0.016987
H        4.642057      -4.645673      -2.154565
H        5.165553      -4.312184       2.118506
H        5.585741      -5.532132      -0.017919
C        3.144180       0.099336      -1.607724
C        4.500472       0.432817      -1.800063
C        2.257596       0.239031      -2.688265
C        4.937020       0.944067      -3.024905
H        5.236779       0.286367      -1.008211
C        2.703095       0.728168      -3.921726
H        1.206318      -0.038214      -2.565034
C        4.040169       1.093891      -4.088460
H        5.990980       1.205850      -3.151394
H        1.998078       0.819743      -4.754126
H        4.386646       1.486491      -5.047751
C        3.087201       0.200846       1.466505
C        4.348643       0.808654       1.588678
C        2.248186       0.159428       2.596388
C        4.748480       1.378891       2.799904
H        5.033268       0.842562       0.743415
C        2.652899       0.719217       3.813206
H        1.271475      -0.325880       2.526348
C        3.902544       1.336311       3.914709
H        5.732069       1.849680       2.869564
H        1.986827       0.668289       4.681216
H        4.219997       1.777169       4.862975
Br       0.273383      -3.453006       0.071695
Br      -1.175142       2.624727      -2.334335
C        1.860370       3.008892      -0.497029
H        2.679950       2.438982      -0.038458
H        1.953248       2.881529      -1.584491
C       -1.192445       2.738353       1.585825
H       -0.440652       3.218371       2.233805
H       -1.565206       1.856993       2.128638
C       -2.346156       3.694239       1.272341
H       -2.947009       3.824344       2.193777
H       -3.029219       3.226220       0.547613
C       -1.954070       5.081492       0.758694
H       -1.307032       5.574123       1.507860
H       -1.346033       4.982004      -0.156647
C       -3.166146       5.970174       0.473145
H       -2.868163       6.971446       0.121820
H       -3.810298       5.523381      -0.303647
H       -3.784813       6.102584       1.377631
C        1.999966       4.490482      -0.135419
H        2.935410       4.850606      -0.611407
H        1.193365       5.089060      -0.598156
C        2.079282       4.807133       1.365890
H        1.065035       4.791304       1.804519
H        2.644622       4.007622       1.880064
C        2.732974       6.161481       1.663056
H        2.211747       6.991617       1.149988
H        2.723254       6.384974       2.742976
H        3.786242       6.176485       1.323917

H     0
S   5   1.00
    282.952156333090         0.0004300
     87.0622019486430        0.0005100
     26.7883698303517        0.0061600
      8.24257533241590       0.0130300
      2.53617702535874       0.0994900
S   1   1.00
      0.78036216164884       1.0000000
S   1   1.00
      0.24011143435349       1.0000000
P   1   1.00
      0.88150000000000       1.0000000
P   1   1.00
      0.17989200000000       1.0000000
****
C     0
S   6   1.00
   8846.12353391750          0.0005300
   2948.70784463917          0.0007700
    982.902614879722         0.0040500
    327.634204959907         0.0140300
    109.211401653302         0.0534500
     36.4038005511008        0.1702700
S   1   1.00
     12.1346001837003        1.0000000
S   1   1.00
      4.04486672790009       1.0000000
S   1   1.00
      1.34828890930003       1.0000000
S   1   1.00
      0.44942963643334       1.0000000
S   1   1.00
      0.14980987881111       1.0000000
P   4   1.00
     37.2940933931704        0.0039600
     11.4751056594370        0.0188900
      3.53080174136525       0.0946100
      1.08640053580469       0.3188900
P   1   1.00
      0.33427708793991       1.0000000
P   1   1.00
      0.10285448859689       1.0000000
D   1   1.00
      0.47750000000000       1.0000000
D   1   1.00
      0.11998000000000       1.0000000
****
P     0
S   7   1.00
  59538.0043013517           0.0009500
  21650.1833823097           0.0006100
   7872.79395720353          0.0037500
   2862.83416625583          0.0096300
   1041.03060591121          0.0324300
    378.556583967713         0.0995000
    137.656939624623         0.2657000
S   1   1.00
     50.0570689544083        1.0000000
S   1   1.00
     18.2025705288757        1.0000000
S   1   1.00
      6.61911655595482       1.0000000
S   1   1.00
      2.40695147489266       1.0000000
S   1   1.00
      0.87525508177915       1.0000000
S   1   1.00
      0.31827457519242       1.0000000
S   1   1.00
      0.11573620916088       1.0000000
S   1   1.00
      0.04208589424032       1.0000000
P   5   1.00
    487.996723151500         0.0021600
    162.665574383833         0.0097900
     54.2218581279445        0.0548500
     18.0739527093148        0.2177000
      6.02465090310494       0.4897800
P   1   1.00
      2.00821696770165       1.0000000
P   1   1.00
      0.66940565590055       1.0000000
P   1   1.00
      0.22313521863352       1.0000000
P   1   1.00
      0.07437840621117       1.0000000
P   1   1.00
      0.02479280207039       1.0000000
D   1   1.00
      0.35395000000000       1.0000000
D   1   1.00
      0.08909800000000       1.0000000
****
Br     0
S   7   1.00
 348670.995115554            0.0024100
 139468.398046222            0.0001200
  55787.3592184887           0.0058500
  22314.9436873955           0.0082100
   8925.97747495819          0.0240900
   3570.39098998328          0.0572500
   1428.15639599331          0.1446700
S   1   1.00
    571.262558397324         1.0000000
S   1   1.00
    228.505023358930         1.0000000
S   1   1.00
     91.4020093435719        1.0000000
S   1   1.00
     36.5608037374287        1.0000000
S   1   1.00
     14.6243214949715        1.0000000
S   1   1.00
      5.84972859798860       1.0000000
S   1   1.00
      2.33989143919544       1.0000000
S   1   1.00
      0.93595657567818       1.0000000
S   1   1.00
      0.37438263027127       1.0000000
S   1   1.00
      0.14975305210851       1.0000000
S   1   1.00
      0.05990122084340       1.0000000
P   5   1.00
   4271.50436123164          0.0020900
   1553.27431317514          0.0055700
    564.827022972778         0.0302500
    205.391644717374         0.1219600
     74.6878708063178        0.3786100
P   1   1.00
     27.1592257477519        1.0000000
P   1   1.00
      9.87608209009161       1.0000000
P   1   1.00
      3.59130257821513       1.0000000
P   1   1.00
      1.30592821026005       1.0000000
P   1   1.00
      0.47488298554911       1.0000000
P   1   1.00
      0.17268472201786       1.0000000
P   1   1.00
      0.06279444437013       1.0000000
P   1   1.00
      0.02283434340732       1.0000000
D   4   1.00
    157.766242822167         0.0079800
     52.5887476073889        0.0498700
     17.5295825357963        0.2240500
      5.84319417859877       0.4425000
D   1   1.00
      1.94773139286626       1.0000000
D   1   1.00
      0.64924379762209       1.0000000
F   1   1.00
      1.64800000000000       1.0000000
F   1   1.00
      0.45490000000000       1.0000000
****
Sn     0
S   8   1.00
 754482.145507175            0.0044300
 335325.398003189            0.0019800
 149033.510223639            0.0090500
  66237.1156549509           0.0048700
  29438.7180688671           0.0207700
  13083.8746972742           0.0329000
   5815.05542101078          0.0770100
   2584.46907600479          0.1516000
S   1   1.00
   1148.65292266880          1.0000000
S   1   1.00
    510.512410075020         1.0000000
S   1   1.00
    226.894404477787         1.0000000
S   1   1.00
    100.841957545683         1.0000000
S   1   1.00
     44.8186477980813        1.0000000
S   1   1.00
     19.9193990213695        1.0000000
S   1   1.00
      8.85306623171977       1.0000000
S   1   1.00
      3.93469610298656       1.0000000
S   1   1.00
      1.74875382354958       1.0000000
S   1   1.00
      0.77722392157759       1.0000000
S   1   1.00
      0.34543285403449       1.0000000
S   1   1.00
      0.15352571290422       1.0000000
S   1   1.00
      0.06823365017965       1.0000000
S   1   1.00
      0.01347825188734       1.0000000
P   5   1.00
  10090.6583042438           0.0027500
   4036.26332169752          0.0041800
   1614.50532867901          0.0208900
    645.802131471604         0.0713700
    258.320852588642         0.2261300
P   1   1.00
    103.328341035457         1.0000000
P   1   1.00
     41.3313364141826        1.0000000
P   1   1.00
     16.5325345656731        1.0000000
P   1   1.00
      6.61301382626922       1.0000000
P   1   1.00
      2.64520553050769       1.0000000
P   1   1.00
      1.05808221220308       1.0000000
P   1   1.00
      0.42323288488123       1.0000000
P   1   1.00
      0.16929315395249       1.0000000
P   1   1.00
      0.06771726158100       1.0000000
P   1   1.00
      0.02708690463240       1.0000000
P   1   1.00
      0.01083476185296       1.0000000
D   4   1.00
    554.302506505741         0.0043700
    201.564547820269         0.0251100
     73.2961992073707        0.1331600
     26.6531633481348        0.3890000
D   1   1.00
      9.69205939932174       1.0000000
D   1   1.00
      3.52438523611700       1.0000000
D   1   1.00
      1.28159463131527       1.0000000
D   1   1.00
      0.46603441138737       1.0000000
D   1   1.00
      0.16946705868632       1.0000000
F   1   1.00
      1.31400000000000       1.0000000
F   1   1.00
      0.19993000000000       1.0000000
****
Pt     0
S   9   1.00
2164481.60896527             0.0123200
1082240.80448263             0.0129700
 541120.402241316            0.0263700
 270560.201120658            0.0090400
 135280.100560329            0.0349800
  67640.0502801646           0.0122200
  33820.0251400823           0.0605200
  16910.0125700411           0.0649300
   8455.00628502057          0.1381900
S   1   1.00
   4227.50314251028          1.0000000
S   1   1.00
   2113.75157125514          1.0000000
S   1   1.00
   1056.87578562757          1.0000000
S   1   1.00
    528.437892813786         1.0000000
S   1   1.00
    264.218946406893         1.0000000
S   1   1.00
    132.109473203446         1.0000000
S   1   1.00
     66.0547366017232        1.0000000
S   1   1.00
     33.0273683008616        1.0000000
S   1   1.00
     16.5136841504308        1.0000000
S   1   1.00
      8.25684207521540       1.0000000
S   1   1.00
      4.12842103760770       1.0000000
S   1   1.00
      2.06421051880385       1.0000000
S   1   1.00
      1.03210525940192       1.0000000
S   1   1.00
      0.51605262970096       1.0000000
S   1   1.00
      0.25802631485048       1.0000000
S   1   1.00
      0.12901315742524       1.0000000
S   1   1.00
      0.06450657871262       1.0000000
P   7   1.00
  32357.9152575654           0.0050200
  14381.2956700291           0.0020200
   6391.68696445736          0.0180700
   2840.74976198105          0.0366200
   1262.55544976936          0.1117200
    561.135755453047         0.2558600
    249.393669090243         0.4260800
P   1   1.00
    110.841630706775         1.0000000
P   1   1.00
     49.2629469807888        1.0000000
P   1   1.00
     21.8946431025728        1.0000000
P   1   1.00
      9.73095249003235       1.0000000
P   1   1.00
      4.32486777334771       1.0000000
P   1   1.00
      1.92216345482120       1.0000000
P   1   1.00
      0.85429486880942       1.0000000
P   1   1.00
      0.37968660835974       1.0000000
P   1   1.00
      0.16874960371544       1.0000000
P   1   1.00
      0.07499982387353       1.0000000
P   1   1.00
      0.03333325505490       1.0000000
D   5   1.00
   1911.90035078584          0.0043300
    764.760140314335         0.0177800
    305.904056125734         0.0897100
    122.361622450294         0.3112300
     48.9446489801175        0.5320600
D   1   1.00
     19.5778595920470        1.0000000
D   1   1.00
      7.83114383681879       1.0000000
D   1   1.00
      3.13245753472752       1.0000000
D   1   1.00
      1.25298301389101       1.0000000
D   1   1.00
      0.50119320555640       1.0000000
D   1   1.00
      0.20047728222256       1.0000000
D   1   1.00
      0.08019091288902       1.0000000
D   1   1.00
      0.03207636515561       1.0000000
F   4   1.00
     82.2896809794193        0.0618700
     29.9235203561525        0.2482300
     10.8812801295100        0.4995600
      3.95682913800363       0.4038000
F   1   1.00
      1.43884695927405       1.0000000
F   1   1.00
      0.52321707609965       1.0000000
G   1   1.00
      2.67000000000000       1.0000000
G   1   1.00
      0.90960000000000       1.0000000
****







