%mem=7Gb
%nproc=4
#PBEPBE/gen scf=(maxcycle=500,conver=4) NMR=GIAO Scrf=(solvent=Dichloromethane)

estrutura 90

0 1
Pt      -0.510308       0.293970       0.165695
C       -0.081757       2.311132       0.477234
C        0.046725       3.264624      -0.552368
C        0.054073       2.786876       1.798963
C        0.273070       4.619763      -0.281525
H       -0.022251       2.955286      -1.596971
C        0.290355       4.138981       2.078180
H       -0.025734       2.090805       2.638453
C        0.397911       5.066917       1.037469
H        0.365591       5.327728      -1.110697
H        0.391109       4.466140       3.117520
H        0.582404       6.123130       1.251483
P       -2.861188       1.053411      -0.176452
P       -0.847009      -2.120753      -0.025502
C       -3.059821       1.706152      -1.896251
C       -4.278839       2.265573      -2.326128
C       -2.012283       1.574819      -2.820473
C       -4.429290       2.711298      -3.640749
H       -5.121746       2.345093      -1.636120
C       -2.166629       2.015543      -4.139873
H       -1.075048       1.110943      -2.506328
C       -3.371680       2.590470      -4.550347
H       -5.379275       3.148117      -3.958706
H       -1.341121       1.904234      -4.847149
H       -3.492470       2.936203      -5.579991
C       -3.278795       2.443064       0.971641
C       -3.241636       2.187319       2.355516
C       -3.593843       3.740069       0.538351
C       -3.554946       3.187814       3.278023
H       -2.957117       1.199584       2.726048
C       -3.889574       4.747063       1.464583
H       -3.599080       3.982115      -0.524424
C       -3.882654       4.473264       2.834177
H       -3.529591       2.964207       4.347409
H       -4.126705       5.752105       1.106651
H       -4.120167       5.260111       3.554501
C       -4.380606      -0.024129      -0.083075
C       -4.604878      -0.935654      -1.130649
C       -5.314008       0.033963       0.964735
C       -5.725795      -1.768714      -1.126968
H       -3.909469      -0.988569      -1.969577
C       -6.437095      -0.800846       0.966718
H       -5.185700       0.741313       1.783712
C       -6.647102      -1.706151      -0.075930
H       -5.879902      -2.466405      -1.954035
H       -7.153793      -0.734178       1.789584
H       -7.526661      -2.354763      -0.074303
C        0.562863      -3.293375       0.282836
C        0.970520      -4.265843      -0.641945
C        1.198538      -3.238255       1.534612
C        1.998548      -5.160025      -0.321962
H        0.493954      -4.332591      -1.620772
C        2.225144      -4.129316       1.852111
H        0.892641      -2.494950       2.273227
C        2.629882      -5.093800       0.922161
H        2.306611      -5.909999      -1.054994
H        2.711796      -4.066615       2.828537
H        3.434767      -5.791177       1.168505
C       -1.401734      -2.601913      -1.722567
C       -2.504281      -3.426256      -1.996930
C       -0.652890      -2.090442      -2.800023
C       -2.848073      -3.735467      -3.317925
H       -3.114793      -3.822549      -1.185541
C       -0.993544      -2.407369      -4.117472
H        0.212305      -1.450450      -2.607785
C       -2.094517      -3.230086      -4.380614
H       -3.712369      -4.375547      -3.512863
H       -0.397246      -2.006995      -4.941072
H       -2.364459      -3.474350      -5.411060
C       -2.046285      -2.844995       1.189050
C       -2.308919      -4.228465       1.227140
C       -2.611494      -2.025786       2.176553
C       -3.146824      -4.765786       2.206382
H       -1.840993      -4.897477       0.502167
C       -3.438972      -2.565927       3.167945
H       -2.385187      -0.958401       2.176169
C       -3.714967      -3.934816       3.179586
H       -3.345949      -5.840411       2.218738
H       -3.866698      -1.912620       3.932380
H       -4.362487      -4.358281       3.951652
Sn       2.149943       0.308463       0.285244
C        2.968673      -0.036784       2.301591
C        4.351451      -0.059556       2.559240
C        2.093507      -0.222695       3.386674
C        4.842834      -0.273916       3.853668
H        5.065475       0.091835       1.745287
C        2.577875      -0.433114       4.684270
H        1.010868      -0.205454       3.222538
C        3.956674      -0.462893       4.919583
H        5.922583      -0.291492       4.029948
H        1.877256      -0.574624       5.512205
H        4.339149      -0.629497       5.930367
C        3.287802       2.037555      -0.443111
C        3.980496       2.883507       0.439714
C        3.322580       2.341394      -1.815177
C        4.684063       3.999967      -0.032856
H        3.977170       2.680123       1.514484
C        4.021973       3.455318      -2.292529
H        2.800555       1.699398      -2.531273
C        4.706068       4.288757      -1.400404
H        5.216406       4.645449       0.672046
H        4.035759       3.672513      -3.364791
H        5.254458       5.159291      -1.770611
S        3.067304      -1.457773      -1.321057
C        4.797368      -1.094593      -1.609153
C        5.209488      -0.539110      -2.834274
C        5.780623      -1.446855      -0.665246
C        6.566399      -0.333285      -3.103147
H        4.456922      -0.271962      -3.578872
C        7.135860      -1.230059      -0.933367
H        5.475831      -1.901212       0.279500
C        7.535512      -0.672768      -2.153127
H        6.866454       0.098597      -4.061817
H        7.884438      -1.507056      -0.185698
H        8.595633      -0.507948      -2.363112

H     0
S   5   1.00
    282.952156333090         0.0004300
     87.0622019486430        0.0005100
     26.7883698303517        0.0061600
      8.24257533241590       0.0130300
      2.53617702535874       0.0994900
S   1   1.00
      0.78036216164884       1.0000000
S   1   1.00
      0.24011143435349       1.0000000
P   1   1.00
      0.88150000000000       1.0000000
P   1   1.00
      0.17989200000000       1.0000000
****
C     0
S   6   1.00
   8846.12353391750          0.0005300
   2948.70784463917          0.0007700
    982.902614879722         0.0040500
    327.634204959907         0.0140300
    109.211401653302         0.0534500
     36.4038005511008        0.1702700
S   1   1.00
     12.1346001837003        1.0000000
S   1   1.00
      4.04486672790009       1.0000000
S   1   1.00
      1.34828890930003       1.0000000
S   1   1.00
      0.44942963643334       1.0000000
S   1   1.00
      0.14980987881111       1.0000000
P   4   1.00
     37.2940933931704        0.0039600
     11.4751056594370        0.0188900
      3.53080174136525       0.0946100
      1.08640053580469       0.3188900
P   1   1.00
      0.33427708793991       1.0000000
P   1   1.00
      0.10285448859689       1.0000000
D   1   1.00
      0.47750000000000       1.0000000
D   1   1.00
      0.11998000000000       1.0000000
****
P     0
S   7   1.00
  59538.0043013517           0.0009500
  21650.1833823097           0.0006100
   7872.79395720353          0.0037500
   2862.83416625583          0.0096300
   1041.03060591121          0.0324300
    378.556583967713         0.0995000
    137.656939624623         0.2657000
S   1   1.00
     50.0570689544083        1.0000000
S   1   1.00
     18.2025705288757        1.0000000
S   1   1.00
      6.61911655595482       1.0000000
S   1   1.00
      2.40695147489266       1.0000000
S   1   1.00
      0.87525508177915       1.0000000
S   1   1.00
      0.31827457519242       1.0000000
S   1   1.00
      0.11573620916088       1.0000000
S   1   1.00
      0.04208589424032       1.0000000
P   5   1.00
    487.996723151500         0.0021600
    162.665574383833         0.0097900
     54.2218581279445        0.0548500
     18.0739527093148        0.2177000
      6.02465090310494       0.4897800
P   1   1.00
      2.00821696770165       1.0000000
P   1   1.00
      0.66940565590055       1.0000000
P   1   1.00
      0.22313521863352       1.0000000
P   1   1.00
      0.07437840621117       1.0000000
P   1   1.00
      0.02479280207039       1.0000000
D   1   1.00
      0.35395000000000       1.0000000
D   1   1.00
      0.08909800000000       1.0000000
****
S     0
S   7   1.00
  68045.9311288506           0.0010100
  24743.9749559457           0.0006200
   8997.80907488934          0.0038500
   3271.93057268703          0.0097200
   1189.79293552256          0.0325500
    432.651976553657         0.0994900
    157.327991474057         0.2656200
S   1   1.00
     57.2101787178390        1.0000000
S   1   1.00
     20.8037013519414        1.0000000
S   1   1.00
      7.56498230979689       1.0000000
S   1   1.00
      2.75090265810796       1.0000000
S   1   1.00
      1.00032823931199       1.0000000
S   1   1.00
      0.36375572338618       1.0000000
S   1   1.00
      0.13227480850406       1.0000000
S   1   1.00
      0.04809993036511       1.0000000
P   5   1.00
    587.120519822969         0.0020700
    195.706839940990         0.0093200
     65.2356133136632        0.0528000
     21.7452044378877        0.2136100
      7.24840147929591       0.4940100
P   1   1.00
      2.41613382643197       1.0000000
P   1   1.00
      0.80537794214399       1.0000000
P   1   1.00
      0.26845931404800       1.0000000
P   1   1.00
      0.08948643801600       1.0000000
P   1   1.00
      0.02982881267200       1.0000000
D   1   1.00
      0.41409000000000       1.0000000
D   1   1.00
      0.09856000000000       1.0000000
****
Sn     0
S   8   1.00
 754482.145507175            0.0044300
 335325.398003189            0.0019800
 149033.510223639            0.0090500
  66237.1156549509           0.0048700
  29438.7180688671           0.0207700
  13083.8746972742           0.0329000
   5815.05542101078          0.0770100
   2584.46907600479          0.1516000
S   1   1.00
   1148.65292266880          1.0000000
S   1   1.00
    510.512410075020         1.0000000
S   1   1.00
    226.894404477787         1.0000000
S   1   1.00
    100.841957545683         1.0000000
S   1   1.00
     44.8186477980813        1.0000000
S   1   1.00
     19.9193990213695        1.0000000
S   1   1.00
      8.85306623171977       1.0000000
S   1   1.00
      3.93469610298656       1.0000000
S   1   1.00
      1.74875382354958       1.0000000
S   1   1.00
      0.77722392157759       1.0000000
S   1   1.00
      0.34543285403449       1.0000000
S   1   1.00
      0.15352571290422       1.0000000
S   1   1.00
      0.06823365017965       1.0000000
S   1   1.00
      0.01347825188734       1.0000000
P   5   1.00
  10090.6583042438           0.0027500
   4036.26332169752          0.0041800
   1614.50532867901          0.0208900
    645.802131471604         0.0713700
    258.320852588642         0.2261300
P   1   1.00
    103.328341035457         1.0000000
P   1   1.00
     41.3313364141826        1.0000000
P   1   1.00
     16.5325345656731        1.0000000
P   1   1.00
      6.61301382626922       1.0000000
P   1   1.00
      2.64520553050769       1.0000000
P   1   1.00
      1.05808221220308       1.0000000
P   1   1.00
      0.42323288488123       1.0000000
P   1   1.00
      0.16929315395249       1.0000000
P   1   1.00
      0.06771726158100       1.0000000
P   1   1.00
      0.02708690463240       1.0000000
P   1   1.00
      0.01083476185296       1.0000000
D   4   1.00
    554.302506505741         0.0043700
    201.564547820269         0.0251100
     73.2961992073707        0.1331600
     26.6531633481348        0.3890000
D   1   1.00
      9.69205939932174       1.0000000
D   1   1.00
      3.52438523611700       1.0000000
D   1   1.00
      1.28159463131527       1.0000000
D   1   1.00
      0.46603441138737       1.0000000
D   1   1.00
      0.16946705868632       1.0000000
F   1   1.00
      1.31400000000000       1.0000000
F   1   1.00
      0.19993000000000       1.0000000
****
Pt     0
S   9   1.00
2164481.60896527             0.0123200
1082240.80448263             0.0129700
 541120.402241316            0.0263700
 270560.201120658            0.0090400
 135280.100560329            0.0349800
  67640.0502801646           0.0122200
  33820.0251400823           0.0605200
  16910.0125700411           0.0649300
   8455.00628502057          0.1381900
S   1   1.00
   4227.50314251028          1.0000000
S   1   1.00
   2113.75157125514          1.0000000
S   1   1.00
   1056.87578562757          1.0000000
S   1   1.00
    528.437892813786         1.0000000
S   1   1.00
    264.218946406893         1.0000000
S   1   1.00
    132.109473203446         1.0000000
S   1   1.00
     66.0547366017232        1.0000000
S   1   1.00
     33.0273683008616        1.0000000
S   1   1.00
     16.5136841504308        1.0000000
S   1   1.00
      8.25684207521540       1.0000000
S   1   1.00
      4.12842103760770       1.0000000
S   1   1.00
      2.06421051880385       1.0000000
S   1   1.00
      1.03210525940192       1.0000000
S   1   1.00
      0.51605262970096       1.0000000
S   1   1.00
      0.25802631485048       1.0000000
S   1   1.00
      0.12901315742524       1.0000000
S   1   1.00
      0.06450657871262       1.0000000
P   7   1.00
  32357.9152575654           0.0050200
  14381.2956700291           0.0020200
   6391.68696445736          0.0180700
   2840.74976198105          0.0366200
   1262.55544976936          0.1117200
    561.135755453047         0.2558600
    249.393669090243         0.4260800
P   1   1.00
    110.841630706775         1.0000000
P   1   1.00
     49.2629469807888        1.0000000
P   1   1.00
     21.8946431025728        1.0000000
P   1   1.00
      9.73095249003235       1.0000000
P   1   1.00
      4.32486777334771       1.0000000
P   1   1.00
      1.92216345482120       1.0000000
P   1   1.00
      0.85429486880942       1.0000000
P   1   1.00
      0.37968660835974       1.0000000
P   1   1.00
      0.16874960371544       1.0000000
P   1   1.00
      0.07499982387353       1.0000000
P   1   1.00
      0.03333325505490       1.0000000
D   5   1.00
   1911.90035078584          0.0043300
    764.760140314335         0.0177800
    305.904056125734         0.0897100
    122.361622450294         0.3112300
     48.9446489801175        0.5320600
D   1   1.00
     19.5778595920470        1.0000000
D   1   1.00
      7.83114383681879       1.0000000
D   1   1.00
      3.13245753472752       1.0000000
D   1   1.00
      1.25298301389101       1.0000000
D   1   1.00
      0.50119320555640       1.0000000
D   1   1.00
      0.20047728222256       1.0000000
D   1   1.00
      0.08019091288902       1.0000000
D   1   1.00
      0.03207636515561       1.0000000
F   4   1.00
     82.2896809794193        0.0618700
     29.9235203561525        0.2482300
     10.8812801295100        0.4995600
      3.95682913800363       0.4038000
F   1   1.00
      1.43884695927405       1.0000000
F   1   1.00
      0.52321707609965       1.0000000
G   1   1.00
      2.67000000000000       1.0000000
G   1   1.00
      0.90960000000000       1.0000000
****

