%mem=7Gb
%nproc=4
#PBEPBE/gen scf=(maxcycle=500,conver=4) NMR=GIAO Scrf=(solvent=Dichloromethane)

estrutura 78

0 1
Pt       0.143770      -0.003398       0.077092
P       -0.129155       2.388168       0.104275
P        0.442477      -2.385880      -0.004180
C       -0.651900       3.003248      -1.564682
H       -1.512023       2.383653      -1.860256
H        0.174141       2.731318      -2.242505
C       -1.008001       4.487074      -1.695877
H       -0.195788       5.150447      -1.361322
H       -1.213978       4.725009      -2.751775
H       -1.913463       4.738470      -1.123458
C       -1.471268       2.852316       1.315949
H       -1.438758       2.085679       2.105432
C        1.327701       3.442646       0.564347
H        0.926987       4.425467       0.856040
H        1.762378       2.999586       1.473748
C        2.396026       3.624155      -0.518316
H        3.240180       4.201862      -0.109713
H        2.793545       2.665211      -0.877659
H        2.009932       4.179013      -1.386517
C       -0.686468      -3.353549       1.101300
H       -0.443191      -4.419381       0.960051
H       -1.705815      -3.221043       0.705635
C       -0.614910      -2.963082       2.579579
H        0.396708      -3.095555       2.994781
H       -0.915395      -1.915235       2.730422
H       -1.299496      -3.592955       3.169162
C        2.143490      -2.992447       0.421431
H        2.830497      -2.496731      -0.280373
H        2.383454      -2.574081       1.411205
C        2.356851      -4.508528       0.403657
H        3.412795      -4.733341       0.621365
H        1.750840      -5.025769       1.162580
H        2.125180      -4.951676      -0.576844
C        0.090775      -3.056846      -1.693157
H        0.259870      -4.145891      -1.666860
H       -0.988818      -2.911486      -1.854688
C        0.899700      -2.398194      -2.812782
H        0.601470      -2.810057      -3.789552
H        0.730041      -1.309977      -2.838130
H        1.981717      -2.569436      -2.700231
Sn      -2.551228      -0.309237      -0.219025
Cl      -3.633927      -0.418061       1.974533
Cl      -4.013880       1.367259      -1.257068
Cl      -3.609055      -2.277733      -1.233895
C       -1.459797       4.248882       1.944491
H       -2.357490       4.369946       2.571869
H       -0.585433       4.402440       2.594886
H       -1.473638       5.053424       1.194699
H       -2.414303       2.687130       0.768966
C        2.121534       0.198031       0.585303
C        3.145407       0.163061      -0.372868
C        2.494768       0.340723       1.936654
C        4.481610       0.262238       0.029874
H        2.933315       0.053590      -1.436302
C        3.839151       0.438618       2.322288
H        1.724187       0.373047       2.712000
C        4.855570       0.400827       1.367679
H        4.093820       0.543885       3.379769
H        5.908236       0.472963       1.637027
O        6.694039       0.364477      -0.644277
O        5.196854       0.032459      -2.163188
N        5.534845       0.213952      -1.001006

H     0
S   5   1.00
    282.952156333090         0.0004300
     87.0622019486430        0.0005100
     26.7883698303517        0.0061600
      8.24257533241590       0.0130300
      2.53617702535874       0.0994900
S   1   1.00
      0.78036216164884       1.0000000
S   1   1.00
      0.24011143435349       1.0000000
P   1   1.00
      0.88150000000000       1.0000000
P   1   1.00
      0.17989200000000       1.0000000
****
C     0
S   6   1.00
   8846.12353391750          0.0005300
   2948.70784463917          0.0007700
    982.902614879722         0.0040500
    327.634204959907         0.0140300
    109.211401653302         0.0534500
     36.4038005511008        0.1702700
S   1   1.00
     12.1346001837003        1.0000000
S   1   1.00
      4.04486672790009       1.0000000
S   1   1.00
      1.34828890930003       1.0000000
S   1   1.00
      0.44942963643334       1.0000000
S   1   1.00
      0.14980987881111       1.0000000
P   4   1.00
     37.2940933931704        0.0039600
     11.4751056594370        0.0188900
      3.53080174136525       0.0946100
      1.08640053580469       0.3188900
P   1   1.00
      0.33427708793991       1.0000000
P   1   1.00
      0.10285448859689       1.0000000
D   1   1.00
      0.47750000000000       1.0000000
D   1   1.00
      0.11998000000000       1.0000000
****
N     0
S   6   1.00
  12238.3269689590           0.0005600
   4079.44232298633          0.0007700
   1359.81410766211          0.0040600
    453.271369220703         0.0139100
    151.090456406901         0.0529900
     50.3634854689670        0.1695200
S   1   1.00
     16.7878284896557        1.0000000
S   1   1.00
      5.59594282988522       1.0000000
S   1   1.00
      1.86531427662841       1.0000000
S   1   1.00
      0.62177142554280       1.0000000
S   1   1.00
      0.20725714184760       1.0000000
P   4   1.00
     54.1425482486954        0.0039700
     16.6592456149832        0.0195400
      5.12592172768714       0.0997900
      1.57720668544220       0.3284500
P   1   1.00
      0.48529436475145       1.0000000
P   1   1.00
      0.14932134300045       1.0000000
D   1   1.00
      0.47700000000000       1.0000000
D   1   1.00
      0.15026000000000       1.0000000
****
O     0
S   6   1.00
  16178.1182314232           0.0006000
   5392.70607714106          0.0007800
   1797.56869238035          0.0041000
    599.189564126785         0.0138800
    199.729854708928         0.0527700
     66.5766182363094        0.1692400
S   1   1.00
     22.1922060787698        1.0000000
S   1   1.00
      7.39740202625660       1.0000000
S   1   1.00
      2.46580067541887       1.0000000
S   1   1.00
      0.82193355847296       1.0000000
S   1   1.00
      0.27397785282432       1.0000000
P   4   1.00
     73.8543986696091        0.0040200
     22.7244303598797        0.0201300
      6.99213241842453       0.1047000
      2.15142535951524       0.3360500
P   1   1.00
      0.66197703369700       1.0000000
P   1   1.00
      0.20368524113754       1.0000000
D   1   1.00
      0.92880000000000       1.0000000
D   1   1.00
      0.22975000000000       1.0000000
****
P     0
S   7   1.00
  59538.0043013517           0.0009500
  21650.1833823097           0.0006100
   7872.79395720353          0.0037500
   2862.83416625583          0.0096300
   1041.03060591121          0.0324300
    378.556583967713         0.0995000
    137.656939624623         0.2657000
S   1   1.00
     50.0570689544083        1.0000000
S   1   1.00
     18.2025705288757        1.0000000
S   1   1.00
      6.61911655595482       1.0000000
S   1   1.00
      2.40695147489266       1.0000000
S   1   1.00
      0.87525508177915       1.0000000
S   1   1.00
      0.31827457519242       1.0000000
S   1   1.00
      0.11573620916088       1.0000000
S   1   1.00
      0.04208589424032       1.0000000
P   5   1.00
    487.996723151500         0.0021600
    162.665574383833         0.0097900
     54.2218581279445        0.0548500
     18.0739527093148        0.2177000
      6.02465090310494       0.4897800
P   1   1.00
      2.00821696770165       1.0000000
P   1   1.00
      0.66940565590055       1.0000000
P   1   1.00
      0.22313521863352       1.0000000
P   1   1.00
      0.07437840621117       1.0000000
P   1   1.00
      0.02479280207039       1.0000000
D   1   1.00
      0.35395000000000       1.0000000
D   1   1.00
      0.08909800000000       1.0000000
****
Cl     0
S   7   1.00
  77142.8171643825           0.0010600
  28051.9335143209           0.0006400
  10200.7030961167           0.0039600
   3709.34658040607          0.0098300
   1348.85330196584          0.0326900
    490.492109805761         0.0995200
    178.360767202095         0.2655500
S   1   1.00
     64.8584608007618        1.0000000
S   1   1.00
     23.5848948366407        1.0000000
S   1   1.00
      8.57632539514206       1.0000000
S   1   1.00
      3.11866378005166       1.0000000
S   1   1.00
      1.13405955638242       1.0000000
S   1   1.00
      0.41238529322997       1.0000000
S   1   1.00
      0.14995828844726       1.0000000
S   1   1.00
      0.05453028670810       1.0000000
P   5   1.00
    694.985360568515         0.0020000
    231.661786856172         0.0089500
     77.2205956187239        0.0511300
     25.7401985395746        0.2101100
      8.58006617985821       0.4973800
P   1   1.00
      2.86002205995274       1.0000000
P   1   1.00
      0.95334068665091       1.0000000
P   1   1.00
      0.31778022888364       1.0000000
P   1   1.00
      0.10592674296121       1.0000000
P   1   1.00
      0.03530891432040       1.0000000
D   1   1.00
      0.55696000000000       1.0000000
D   1   1.00
      0.15619100000000       1.0000000
****
Sn     0
S   8   1.00
 754482.145507175            0.0044300
 335325.398003189            0.0019800
 149033.510223639            0.0090500
  66237.1156549509           0.0048700
  29438.7180688671           0.0207700
  13083.8746972742           0.0329000
   5815.05542101078          0.0770100
   2584.46907600479          0.1516000
S   1   1.00
   1148.65292266880          1.0000000
S   1   1.00
    510.512410075020         1.0000000
S   1   1.00
    226.894404477787         1.0000000
S   1   1.00
    100.841957545683         1.0000000
S   1   1.00
     44.8186477980813        1.0000000
S   1   1.00
     19.9193990213695        1.0000000
S   1   1.00
      8.85306623171977       1.0000000
S   1   1.00
      3.93469610298656       1.0000000
S   1   1.00
      1.74875382354958       1.0000000
S   1   1.00
      0.77722392157759       1.0000000
S   1   1.00
      0.34543285403449       1.0000000
S   1   1.00
      0.15352571290422       1.0000000
S   1   1.00
      0.06823365017965       1.0000000
S   1   1.00
      0.01347825188734       1.0000000
P   5   1.00
  10090.6583042438           0.0027500
   4036.26332169752          0.0041800
   1614.50532867901          0.0208900
    645.802131471604         0.0713700
    258.320852588642         0.2261300
P   1   1.00
    103.328341035457         1.0000000
P   1   1.00
     41.3313364141826        1.0000000
P   1   1.00
     16.5325345656731        1.0000000
P   1   1.00
      6.61301382626922       1.0000000
P   1   1.00
      2.64520553050769       1.0000000
P   1   1.00
      1.05808221220308       1.0000000
P   1   1.00
      0.42323288488123       1.0000000
P   1   1.00
      0.16929315395249       1.0000000
P   1   1.00
      0.06771726158100       1.0000000
P   1   1.00
      0.02708690463240       1.0000000
P   1   1.00
      0.01083476185296       1.0000000
D   4   1.00
    554.302506505741         0.0043700
    201.564547820269         0.0251100
     73.2961992073707        0.1331600
     26.6531633481348        0.3890000
D   1   1.00
      9.69205939932174       1.0000000
D   1   1.00
      3.52438523611700       1.0000000
D   1   1.00
      1.28159463131527       1.0000000
D   1   1.00
      0.46603441138737       1.0000000
D   1   1.00
      0.16946705868632       1.0000000
F   1   1.00
      1.31400000000000       1.0000000
F   1   1.00
      0.19993000000000       1.0000000
****
Pt     0
S   9   1.00
2164481.60896527             0.0123200
1082240.80448263             0.0129700
 541120.402241316            0.0263700
 270560.201120658            0.0090400
 135280.100560329            0.0349800
  67640.0502801646           0.0122200
  33820.0251400823           0.0605200
  16910.0125700411           0.0649300
   8455.00628502057          0.1381900
S   1   1.00
   4227.50314251028          1.0000000
S   1   1.00
   2113.75157125514          1.0000000
S   1   1.00
   1056.87578562757          1.0000000
S   1   1.00
    528.437892813786         1.0000000
S   1   1.00
    264.218946406893         1.0000000
S   1   1.00
    132.109473203446         1.0000000
S   1   1.00
     66.0547366017232        1.0000000
S   1   1.00
     33.0273683008616        1.0000000
S   1   1.00
     16.5136841504308        1.0000000
S   1   1.00
      8.25684207521540       1.0000000
S   1   1.00
      4.12842103760770       1.0000000
S   1   1.00
      2.06421051880385       1.0000000
S   1   1.00
      1.03210525940192       1.0000000
S   1   1.00
      0.51605262970096       1.0000000
S   1   1.00
      0.25802631485048       1.0000000
S   1   1.00
      0.12901315742524       1.0000000
S   1   1.00
      0.06450657871262       1.0000000
P   7   1.00
  32357.9152575654           0.0050200
  14381.2956700291           0.0020200
   6391.68696445736          0.0180700
   2840.74976198105          0.0366200
   1262.55544976936          0.1117200
    561.135755453047         0.2558600
    249.393669090243         0.4260800
P   1   1.00
    110.841630706775         1.0000000
P   1   1.00
     49.2629469807888        1.0000000
P   1   1.00
     21.8946431025728        1.0000000
P   1   1.00
      9.73095249003235       1.0000000
P   1   1.00
      4.32486777334771       1.0000000
P   1   1.00
      1.92216345482120       1.0000000
P   1   1.00
      0.85429486880942       1.0000000
P   1   1.00
      0.37968660835974       1.0000000
P   1   1.00
      0.16874960371544       1.0000000
P   1   1.00
      0.07499982387353       1.0000000
P   1   1.00
      0.03333325505490       1.0000000
D   5   1.00
   1911.90035078584          0.0043300
    764.760140314335         0.0177800
    305.904056125734         0.0897100
    122.361622450294         0.3112300
     48.9446489801175        0.5320600
D   1   1.00
     19.5778595920470        1.0000000
D   1   1.00
      7.83114383681879       1.0000000
D   1   1.00
      3.13245753472752       1.0000000
D   1   1.00
      1.25298301389101       1.0000000
D   1   1.00
      0.50119320555640       1.0000000
D   1   1.00
      0.20047728222256       1.0000000
D   1   1.00
      0.08019091288902       1.0000000
D   1   1.00
      0.03207636515561       1.0000000
F   4   1.00
     82.2896809794193        0.0618700
     29.9235203561525        0.2482300
     10.8812801295100        0.4995600
      3.95682913800363       0.4038000
F   1   1.00
      1.43884695927405       1.0000000
F   1   1.00
      0.52321707609965       1.0000000
G   1   1.00
      2.67000000000000       1.0000000
G   1   1.00
      0.90960000000000       1.0000000
****





