%mem=100Gb
%nproc=32
#PBEPBE/gen scf=(maxcycle=500,conver=4) NMR=GIAO Scrf=(solvent=Dichloromethane)

estrutura 48

0 1
Pt       2.335037      -0.722510      -0.355567
Cl       0.463975      -2.367469      -0.953538
Cl       3.730020      -2.446627       0.455652
Cl       0.731622       0.889190      -1.209166
P        3.967860       0.766380       0.195408
C        4.346008       0.698620       1.997241
H        5.170533       1.402360       2.194684
H        4.725831      -0.318425       2.178585
C        3.138874       0.995333       2.894918
H        2.721571       1.996910       2.711992
H        2.333861       0.261201       2.729811
H        3.434495       0.947970       3.953684
C        3.513035       2.511771      -0.207816
H        2.445521       2.613825       0.035674
H        3.580735       2.589011      -1.305000
C        4.319356       3.624172       0.476035
H        3.963639       4.600981       0.115692
H        4.191155       3.611994       1.568393
H        5.395134       3.565095       0.258818
C        5.514722       0.335046      -0.716951
H        5.214216       0.272683      -1.776445
H        5.732104      -0.698089      -0.400749
C        6.740642       1.237790      -0.550577
H        7.598850       0.773323      -1.059954
H        6.591014       2.228306      -1.004747
H        7.021445       1.378073       0.504393
Pt      -1.156764      -0.563719      -0.394872
Sn      -2.421504       1.648814       0.022419
Cl      -1.571473       2.876908       1.914285
Cl      -2.206242       3.257751      -1.748501
Cl      -4.799016       1.838379       0.417704
P       -2.813939      -2.004927       0.260869
C       -2.158003      -3.664027       0.742143
H       -3.048922      -4.298124       0.892662
H       -1.639561      -4.042128      -0.151695
C       -1.227814      -3.725091       1.955240
H       -0.376981      -3.036316       1.842900
H       -1.748617      -3.485433       2.893561
H       -0.821803      -4.743448       2.054891
C       -3.971511      -2.406813      -1.126379
H       -3.464079      -3.177510      -1.731165
H       -4.851218      -2.887633      -0.659195
C       -4.398779      -1.234066      -2.016712
H       -4.909529      -0.436138      -1.451804
H       -3.527002      -0.796365      -2.530582
H       -5.101277      -1.594865      -2.785264
C       -3.922018      -1.455737       1.631861
H       -4.588575      -0.702354       1.185467
H       -4.548344      -2.332910       1.869265
C       -3.267450      -0.890141       2.895763
H       -2.737945      -1.659937       3.472590
H       -2.546386      -0.090441       2.668800
H       -4.042178      -0.457706       3.545882

H     0 
S   5   1.00
    282.952156333090         0.0004300        
     87.0622019486430        0.0005100        
     26.7883698303517        0.0061600        
      8.24257533241590       0.0130300        
      2.53617702535874       0.0994900        
S   1   1.00
      0.78036216164884       1.0000000        
S   1   1.00
      0.24011143435349       1.0000000        
P   1   1.00
      0.88150000000000       1.0000000        
P   1   1.00
      0.17989200000000       1.0000000        
****
C     0 
S   6   1.00
   8846.12353391750          0.0005300        
   2948.70784463917          0.0007700        
    982.902614879722         0.0040500        
    327.634204959907         0.0140300        
    109.211401653302         0.0534500        
     36.4038005511008        0.1702700        
S   1   1.00
     12.1346001837003        1.0000000        
S   1   1.00
      4.04486672790009       1.0000000        
S   1   1.00
      1.34828890930003       1.0000000        
S   1   1.00
      0.44942963643334       1.0000000        
S   1   1.00
      0.14980987881111       1.0000000        
P   4   1.00
     37.2940933931704        0.0039600        
     11.4751056594370        0.0188900        
      3.53080174136525       0.0946100        
      1.08640053580469       0.3188900        
P   1   1.00
      0.33427708793991       1.0000000        
P   1   1.00
      0.10285448859689       1.0000000        
D   1   1.00
      0.47750000000000       1.0000000        
D   1   1.00
      0.11998000000000       1.0000000        
****
P     0 
S   7   1.00
  59538.0043013517           0.0009500        
  21650.1833823097           0.0006100        
   7872.79395720353          0.0037500        
   2862.83416625583          0.0096300        
   1041.03060591121          0.0324300        
    378.556583967713         0.0995000        
    137.656939624623         0.2657000        
S   1   1.00
     50.0570689544083        1.0000000        
S   1   1.00
     18.2025705288757        1.0000000        
S   1   1.00
      6.61911655595482       1.0000000        
S   1   1.00
      2.40695147489266       1.0000000        
S   1   1.00
      0.87525508177915       1.0000000        
S   1   1.00
      0.31827457519242       1.0000000        
S   1   1.00
      0.11573620916088       1.0000000        
S   1   1.00
      0.04208589424032       1.0000000        
P   5   1.00
    487.996723151500         0.0021600        
    162.665574383833         0.0097900        
     54.2218581279445        0.0548500        
     18.0739527093148        0.2177000        
      6.02465090310494       0.4897800        
P   1   1.00
      2.00821696770165       1.0000000        
P   1   1.00
      0.66940565590055       1.0000000        
P   1   1.00
      0.22313521863352       1.0000000        
P   1   1.00
      0.07437840621117       1.0000000        
P   1   1.00
      0.02479280207039       1.0000000        
D   1   1.00
      0.35395000000000       1.0000000        
D   1   1.00
      0.08909800000000       1.0000000        
****
Cl     0 
S   7   1.00
  77142.8171643825           0.0010600        
  28051.9335143209           0.0006400        
  10200.7030961167           0.0039600        
   3709.34658040607          0.0098300        
   1348.85330196584          0.0326900        
    490.492109805761         0.0995200        
    178.360767202095         0.2655500        
S   1   1.00
     64.8584608007618        1.0000000        
S   1   1.00
     23.5848948366407        1.0000000        
S   1   1.00
      8.57632539514206       1.0000000        
S   1   1.00
      3.11866378005166       1.0000000        
S   1   1.00
      1.13405955638242       1.0000000        
S   1   1.00
      0.41238529322997       1.0000000        
S   1   1.00
      0.14995828844726       1.0000000        
S   1   1.00
      0.05453028670810       1.0000000        
P   5   1.00
    694.985360568515         0.0020000        
    231.661786856172         0.0089500        
     77.2205956187239        0.0511300        
     25.7401985395746        0.2101100        
      8.58006617985821       0.4973800        
P   1   1.00
      2.86002205995274       1.0000000        
P   1   1.00
      0.95334068665091       1.0000000        
P   1   1.00
      0.31778022888364       1.0000000        
P   1   1.00
      0.10592674296121       1.0000000        
P   1   1.00
      0.03530891432040       1.0000000        
D   1   1.00
      0.55696000000000       1.0000000        
D   1   1.00
      0.15619100000000       1.0000000        
****
Sn     0 
S   8   1.00
 754482.145507175            0.0044300        
 335325.398003189            0.0019800        
 149033.510223639            0.0090500        
  66237.1156549509           0.0048700        
  29438.7180688671           0.0207700        
  13083.8746972742           0.0329000        
   5815.05542101078          0.0770100        
   2584.46907600479          0.1516000        
S   1   1.00
   1148.65292266880          1.0000000        
S   1   1.00
    510.512410075020         1.0000000        
S   1   1.00
    226.894404477787         1.0000000        
S   1   1.00
    100.841957545683         1.0000000        
S   1   1.00
     44.8186477980813        1.0000000        
S   1   1.00
     19.9193990213695        1.0000000        
S   1   1.00
      8.85306623171977       1.0000000        
S   1   1.00
      3.93469610298656       1.0000000        
S   1   1.00
      1.74875382354958       1.0000000        
S   1   1.00
      0.77722392157759       1.0000000        
S   1   1.00
      0.34543285403449       1.0000000        
S   1   1.00
      0.15352571290422       1.0000000        
S   1   1.00
      0.06823365017965       1.0000000        
S   1   1.00
      0.01347825188734       1.0000000        
P   5   1.00
  10090.6583042438           0.0027500        
   4036.26332169752          0.0041800        
   1614.50532867901          0.0208900        
    645.802131471604         0.0713700        
    258.320852588642         0.2261300        
P   1   1.00
    103.328341035457         1.0000000        
P   1   1.00
     41.3313364141826        1.0000000        
P   1   1.00
     16.5325345656731        1.0000000        
P   1   1.00
      6.61301382626922       1.0000000        
P   1   1.00
      2.64520553050769       1.0000000        
P   1   1.00
      1.05808221220308       1.0000000        
P   1   1.00
      0.42323288488123       1.0000000        
P   1   1.00
      0.16929315395249       1.0000000        
P   1   1.00
      0.06771726158100       1.0000000        
P   1   1.00
      0.02708690463240       1.0000000        
P   1   1.00
      0.01083476185296       1.0000000        
D   4   1.00
    554.302506505741         0.0043700        
    201.564547820269         0.0251100        
     73.2961992073707        0.1331600        
     26.6531633481348        0.3890000        
D   1   1.00
      9.69205939932174       1.0000000        
D   1   1.00
      3.52438523611700       1.0000000        
D   1   1.00
      1.28159463131527       1.0000000        
D   1   1.00
      0.46603441138737       1.0000000        
D   1   1.00
      0.16946705868632       1.0000000        
F   1   1.00
      1.31400000000000       1.0000000        
F   1   1.00
      0.19993000000000       1.0000000        
****
Pt     0 
S   9   1.00
 2164481.60896527            0.0123200        
 1082240.80448263            0.0129700        
 541120.402241316            0.0263700        
 270560.201120658            0.0090400        
 135280.100560329            0.0349800        
  67640.0502801646           0.0122200        
  33820.0251400823           0.0605200        
  16910.0125700411           0.0649300        
   8455.00628502057          0.1381900        
S   1   1.00
   4227.50314251028          1.0000000        
S   1   1.00
   2113.75157125514          1.0000000        
S   1   1.00
   1056.87578562757          1.0000000        
S   1   1.00
    528.437892813786         1.0000000        
S   1   1.00
    264.218946406893         1.0000000        
S   1   1.00
    132.109473203446         1.0000000        
S   1   1.00
     66.0547366017232        1.0000000        
S   1   1.00
     33.0273683008616        1.0000000        
S   1   1.00
     16.5136841504308        1.0000000        
S   1   1.00
      8.25684207521540       1.0000000        
S   1   1.00
      4.12842103760770       1.0000000        
S   1   1.00
      2.06421051880385       1.0000000        
S   1   1.00
      1.03210525940192       1.0000000        
S   1   1.00
      0.51605262970096       1.0000000        
S   1   1.00
      0.25802631485048       1.0000000        
S   1   1.00
      0.12901315742524       1.0000000        
S   1   1.00
      0.06450657871262       1.0000000        
P   7   1.00
  32357.9152575654           0.0050200        
  14381.2956700291           0.0020200        
   6391.68696445736          0.0180700        
   2840.74976198105          0.0366200        
   1262.55544976936          0.1117200        
    561.135755453047         0.2558600        
    249.393669090243         0.4260800        
P   1   1.00
    110.841630706775         1.0000000        
P   1   1.00
     49.2629469807888        1.0000000        
P   1   1.00
     21.8946431025728        1.0000000        
P   1   1.00
      9.73095249003235       1.0000000        
P   1   1.00
      4.32486777334771       1.0000000        
P   1   1.00
      1.92216345482120       1.0000000        
P   1   1.00
      0.85429486880942       1.0000000        
P   1   1.00
      0.37968660835974       1.0000000        
P   1   1.00
      0.16874960371544       1.0000000        
P   1   1.00
      0.07499982387353       1.0000000        
P   1   1.00
      0.03333325505490       1.0000000        
D   5   1.00
   1911.90035078584          0.0043300        
    764.760140314335         0.0177800        
    305.904056125734         0.0897100        
    122.361622450294         0.3112300        
     48.9446489801175        0.5320600        
D   1   1.00
     19.5778595920470        1.0000000        
D   1   1.00
      7.83114383681879       1.0000000        
D   1   1.00
      3.13245753472752       1.0000000        
D   1   1.00
      1.25298301389101       1.0000000        
D   1   1.00
      0.50119320555640       1.0000000        
D   1   1.00
      0.20047728222256       1.0000000        
D   1   1.00
      0.08019091288902       1.0000000        
D   1   1.00
      0.03207636515561       1.0000000        
F   4   1.00
     82.2896809794193        0.0618700        
     29.9235203561525        0.2482300        
     10.8812801295100        0.4995600        
      3.95682913800363       0.4038000        
F   1   1.00
      1.43884695927405       1.0000000        
F   1   1.00
      0.52321707609965       1.0000000        
G   1   1.00
      2.67000000000000       1.0000000        
G   1   1.00
      0.90960000000000       1.0000000        
****




